data/pglib_opf_case240_pserc__api.m
%%%%%%%%%%%%%%%%%%%%%%%%%%%%%%%%%%%%%%%%%%%%%%%%%%%%%%%%%%%%%%%%%%%%%%%%%%%
%%%%                                                                  %%%%%
%%%%    IEEE PES Power Grid Library - Optimal Power Flow - v18.08     %%%%%
%%%%          (https://github.com/power-grid-lib/pglib-opf)           %%%%%
%%%%             Benchmark Group - Active Power Increase              %%%%%
%%%%                        08 - August - 2018                        %%%%%
%%%%                                                                  %%%%%
%%%%%%%%%%%%%%%%%%%%%%%%%%%%%%%%%%%%%%%%%%%%%%%%%%%%%%%%%%%%%%%%%%%%%%%%%%%
function mpc = pglib_opf_case240_pserc__api
mpc.version = '2';
mpc.baseMVA = 100.0;

%% bus data
%	bus_i	type	Pd	Qd	Gs	Bs	area	Vm	Va	baseKV	zone	Vmax	Vmin
mpc.bus = [
	1001	 1	 0.0	 0.0	 0.0	 0.0	 10	    1.00000	    0.00000	 500.0	 1	    1.10000	    0.90000;
	1002	 1	 226.84	 -37.47	 0.0	 0.0	 10	    1.00000	    0.00000	 345.0	 1	    1.10000	    0.90000;
	1003	 1	 2825.92	 366.86	 0.0	 0.0	 10	    1.00000	    0.00000	 230.0	 1	    1.10000	    0.90000;
	1004	 1	 1362.16	 5.52	 0.0	 0.0	 10	    1.00000	    0.00000	 345.0	 1	    1.10000	    0.90000;
	1032	 2	 0.0	 0.0	 0.0	 0.0	 10	    1.00000	    0.00000	 20.0	 1	    1.10000	    0.90000;
	1034	 2	 0.0	 0.0	 0.0	 0.0	 10	    1.00000	    0.00000	 20.0	 1	    1.10000	    0.90000;
	1101	 1	 4527.37	 -137.04	 0.0	 0.0	 10	    1.00000	    0.00000	 500.0	 1	    1.10000	    0.90000;
	1102	 1	 231.56	 23.00	 0.0	 0.0	 10	    1.00000	    0.00000	 345.0	 1	    1.10000	    0.90000;
	1131	 2	 0.0	 0.0	 0.0	 0.0	 10	    1.00000	    0.00000	 20.0	 1	    1.10000	    0.90000;
	1201	 1	 166.99	 -2.01	 0.0	 0.0	 10	    1.00000	    0.00000	 500.0	 1	    1.10000	    0.90000;
	1202	 1	 1149.11	 287.13	 0.0	 0.0	 10	    1.00000	    0.00000	 500.0	 1	    1.10000	    0.90000;
	1232	 2	 0.0	 0.0	 0.0	 0.0	 10	    1.00000	    0.00000	 20.0	 1	    1.10000	    0.90000;
	1301	 1	 3549.63	 352.83	 0.0	 0.0	 10	    1.00000	    0.00000	 500.0	 1	    1.10000	    0.90000;
	1302	 1	 23.04	 2.30	 0.0	 0.0	 10	    1.00000	    0.00000	 500.0	 1	    1.10000	    0.90000;
	1303	 1	 8182.71	 813.35	 0.0	 0.0	 10	    1.00000	    0.00000	 345.0	 1	    1.10000	    0.90000;
	1331	 2	 0.0	 0.0	 0.0	 0.0	 10	    1.00000	    0.00000	 20.0	 1	    1.10000	    0.90000;
	1333	 2	 0.0	 0.0	 0.0	 0.0	 10	    1.00000	    0.00000	 20.0	 1	    1.10000	    0.90000;
	1401	 1	 8576.94	 1524.59	 0.0	 0.0	 10	    1.00000	    0.00000	 500.0	 1	    1.10000	    0.90000;
	1402	 1	 5366.63	 -600.16	 0.0	 0.0	 10	    1.00000	    0.00000	 500.0	 1	    1.10000	    0.90000;
	1403	 1	 0.0	 0.0	 0.0	 0.0	 10	    1.00000	    0.00000	 230.0	 1	    1.10000	    0.90000;
	1431	 2	 0.0	 0.0	 0.0	 0.0	 10	    1.00000	    0.00000	 20.0	 1	    1.10000	    0.90000;
	2000	 1	 2896.61	 287.92	 0.0	 0.0	 20	    1.00000	    0.00000	 230.0	 1	    1.10000	    0.90000;
	2030	 2	 0.0	 0.0	 0.0	 0.0	 20	    1.00000	    0.00000	 20.0	 1	    1.10000	    0.90000;
	2100	 1	 368.97	 54.83	 0.0	 0.0	 21	    1.00000	    0.00000	 230.0	 1	    1.10000	    0.90000;
	2130	 2	 0.0	 0.0	 0.0	 0.0	 21	    1.00000	    0.00000	 20.0	 1	    1.10000	    0.90000;
	2201	 1	 0.0	 0.0	 0.0	 0.0	 22	    1.00000	    0.00000	 500.0	 1	    1.10000	    0.90000;
	2202	 1	 2028.83	 268.56	 0.0	 0.0	 22	    1.00000	    0.00000	 230.0	 1	    1.10000	    0.90000;
	2203	 1	 2242.23	 278.27	 0.0	 0.0	 22	    1.00000	    0.00000	 230.0	 1	    1.10000	    0.90000;
	2233	 2	 0.0	 0.0	 0.0	 0.0	 22	    1.00000	    0.00000	 20.0	 1	    1.10000	    0.90000;
	2301	 1	 0.0	 0.0	 0.0	 0.0	 22	    1.00000	    0.00000	 500.0	 1	    1.10000	    0.90000;
	2302	 1	 0.0	 0.0	 0.0	 0.0	 22	    1.00000	    0.00000	 230.0	 1	    1.10000	    0.90000;
	2332	 2	 0.0	 0.0	 0.0	 0.0	 22	    1.00000	    0.00000	 20.0	 1	    1.10000	    0.90000;
	2400	 1	 1106.70	 76.66	 0.0	 0.0	 24	    1.00000	    0.00000	 500.0	 1	    1.10000	    0.90000;
	2401	 1	 1157.97	 105.21	 0.0	 0.0	 24	    1.00000	    0.00000	 500.0	 1	    1.10000	    0.90000;
	2402	 1	 1417.37	 81.98	 0.0	 0.0	 24	    1.00000	    0.00000	 500.0	 1	    1.10000	    0.90000;
	2403	 1	 1377.98	 38.54	 0.0	 0.0	 24	    1.00000	    0.00000	 500.0	 1	    1.10000	    0.90000;
	2404	 1	 0.0	 0.0	 0.0	 0.0	 24	    1.00000	    0.00000	 500.0	 1	    1.10000	    0.90000;
	2405	 1	 1082.28	 22.90	 0.0	 0.0	 24	    1.00000	    0.00000	 230.0	 1	    1.10000	    0.90000;
	2406	 1	 737.40	 -40.75	 0.0	 0.0	 24	    1.00000	    0.00000	 230.0	 1	    1.10000	    0.90000;
	2407	 1	 1732.77	 -36.53	 0.0	 0.0	 24	    1.00000	    0.00000	 230.0	 1	    1.10000	    0.90000;
	2408	 1	 1743.28	 -72.62	 0.0	 0.0	 24	    1.00000	    0.00000	 230.0	 1	    1.10000	    0.90000;
	2409	 1	 1601.78	 -86.70	 0.0	 0.0	 24	    1.00000	    0.00000	 230.0	 1	    1.10000	    0.90000;
	2410	 1	 2069.30	 58.18	 0.0	 0.0	 24	    1.00000	    0.00000	 230.0	 1	    1.10000	    0.90000;
	2411	 1	 1427.35	 75.95	 0.0	 0.0	 24	    1.00000	    0.00000	 230.0	 1	    1.10000	    0.90000;
	2438	 2	 0.0	 0.0	 0.0	 0.0	 24	    1.00000	    0.00000	 20.0	 1	    1.10000	    0.90000;
	2501	 1	 0.0	 0.0	 0.0	 0.0	 25	    1.00000	    0.00000	 500.0	 1	    1.10000	    0.90000;
	2502	 1	 2369.15	 -91.91	 0.0	 0.0	 25	    1.00000	    0.00000	 230.0	 1	    1.10000	    0.90000;
	2503	 1	 2422.51	 201.99	 0.0	 0.0	 25	    1.00000	    0.00000	 230.0	 1	    1.10000	    0.90000;
	2533	 2	 0.0	 0.0	 0.0	 0.0	 25	    1.00000	    0.00000	 20.0	 1	    1.10000	    0.90000;
	2600	 1	 -1863.90	 0.00	 0.0	 0.0	 90	    1.00000	    0.00000	 500.0	 1	    1.10000	    0.90000;
	2601	 1	 0.0	 0.0	 0.0	 0.0	 26	    1.00000	    0.00000	 500.0	 1	    1.10000	    0.90000;
	2602	 1	 130.29	 12.96	 0.0	 0.0	 26	    1.00000	    0.00000	 500.0	 1	    1.10000	    0.90000;
	2603	 1	 0.0	 0.0	 0.0	 0.0	 26	    1.00000	    0.00000	 500.0	 1	    1.10000	    0.90000;
	2604	 1	 2050.78	 0.00	 0.0	 0.0	 90	    1.00000	    0.00000	 345.0	 1	    1.10000	    0.90000;
	2605	 1	 0.0	 0.0	 0.0	 0.0	 26	    1.00000	    0.00000	 287.0	 1	    1.10000	    0.90000;
	2606	 1	 0.0	 0.0	 0.0	 0.0	 26	    1.00000	    0.00000	 287.0	 1	    1.10000	    0.90000;
	2607	 1	 0.0	 0.0	 0.0	 0.0	 26	    1.00000	    0.00000	 287.0	 1	    1.10000	    0.90000;
	2608	 1	 130.29	 12.96	 0.0	 0.0	 26	    1.00000	    0.00000	 230.0	 1	    1.10000	    0.90000;
	2609	 1	 175.89	 26.80	 0.0	 0.0	 26	    1.00000	    0.00000	 230.0	 1	    1.10000	    0.90000;
	2610	 1	 130.29	 12.96	 0.0	 0.0	 26	    1.00000	    0.00000	 230.0	 1	    1.10000	    0.90000;
	2611	 1	 130.29	 12.96	 0.0	 0.0	 26	    1.00000	    0.00000	 230.0	 1	    1.10000	    0.90000;
	2612	 1	 157.65	 24.82	 0.0	 0.0	 26	    1.00000	    0.00000	 230.0	 1	    1.10000	    0.90000;
	2613	 1	 416.93	 64.53	 0.0	 0.0	 26	    1.00000	    0.00000	 230.0	 1	    1.10000	    0.90000;
	2614	 1	 179.80	 27.80	 0.0	 0.0	 26	    1.00000	    0.00000	 230.0	 1	    1.10000	    0.90000;
	2615	 1	 1052.48	 131.15	 0.0	 0.0	 26	    1.00000	    0.00000	 230.0	 1	    1.10000	    0.90000;
	2616	 1	 152.44	 23.83	 0.0	 0.0	 26	    1.00000	    0.00000	 230.0	 1	    1.10000	    0.90000;
	2617	 1	 157.65	 24.82	 0.0	 0.0	 26	    1.00000	    0.00000	 230.0	 1	    1.10000	    0.90000;
	2618	 1	 881.30	 -6.16	 0.0	 0.0	 26	    1.00000	    0.00000	 230.0	 1	    1.10000	    0.90000;
	2619	 1	 -2773.83	 0.00	 0.0	 0.0	 90	    1.00000	    0.00000	 230.0	 1	    1.10000	    0.90000;
	2620	 1	 267.35	 17.47	 0.0	 0.0	 26	    1.00000	    0.00000	 230.0	 1	    1.10000	    0.90000;
	2621	 1	 235.49	 -62.74	 0.0	 0.0	 26	    1.00000	    0.00000	 138.0	 1	    1.10000	    0.90000;
	2630	 2	 0.0	 0.0	 0.0	 0.0	 26	    1.00000	    0.00000	 20.0	 1	    1.10000	    0.90000;
	2631	 2	 0.0	 0.0	 0.0	 0.0	 26	    1.00000	    0.00000	 20.0	 1	    1.10000	    0.90000;
	2634	 2	 0.0	 0.0	 0.0	 0.0	 90	    1.00000	    0.00000	 20.0	 1	    1.10000	    0.90000;
	2637	 2	 0.0	 0.0	 0.0	 0.0	 26	    1.00000	    0.00000	 20.0	 1	    1.10000	    0.90000;
	2638	 2	 0.0	 0.0	 0.0	 0.0	 26	    1.00000	    0.00000	 20.0	 1	    1.10000	    0.90000;
	2901	 1	 0.0	 0.0	 0.0	 0.0	 24	    1.00000	    0.00000	 500.0	 1	    1.10000	    0.90000;
	2902	 1	 0.0	 0.0	 0.0	 0.0	 24	    1.00000	    0.00000	 500.0	 1	    1.10000	    0.90000;
	3101	 1	 447.91	 52.83	 0.0	 0.0	 31	    1.00000	    0.00000	 230.0	 1	    1.10000	    0.90000;
	3102	 1	 209.27	 24.93	 0.0	 0.0	 31	    1.00000	    0.00000	 230.0	 1	    1.10000	    0.90000;
	3103	 1	 550.68	 59.78	 0.0	 0.0	 32	    1.00000	    0.00000	 230.0	 1	    1.10000	    0.90000;
	3104	 1	 406.79	 40.13	 0.0	 0.0	 31	    1.00000	    0.00000	 115.0	 1	    1.10000	    0.90000;
	3105	 1	 314.05	 49.09	 0.0	 0.0	 31	    1.00000	    0.00000	 115.0	 1	    1.10000	    0.90000;
	3133	 2	 0.0	 0.0	 0.0	 0.0	 32	    1.00000	    0.00000	 20.0	 1	    1.10000	    0.90000;
	3135	 2	 0.0	 0.0	 0.0	 0.0	 31	    1.00000	    0.00000	 20.0	 1	    1.10000	    0.90000;
	3201	 1	 606.93	 97.85	 0.0	 0.0	 32	    1.00000	    0.00000	 230.0	 1	    1.10000	    0.90000;
	3202	 1	 769.28	 83.47	 0.0	 0.0	 32	    1.00000	    0.00000	 230.0	 1	    1.10000	    0.90000;
	3203	 1	 862.35	 158.48	 0.0	 0.0	 32	    1.00000	    0.00000	 230.0	 1	    1.10000	    0.90000;
	3204	 1	 877.69	 95.31	 0.0	 0.0	 32	    1.00000	    0.00000	 230.0	 1	    1.10000	    0.90000;
	3205	 1	 716.63	 77.78	 0.0	 0.0	 32	    1.00000	    0.00000	 230.0	 1	    1.10000	    0.90000;
	3234	 2	 0.0	 0.0	 0.0	 0.0	 32	    1.00000	    0.00000	 20.0	 1	    1.10000	    0.90000;
	3301	 1	 0.0	 0.0	 0.0	 0.0	 32	    1.00000	    0.00000	 500.0	 1	    1.10000	    0.90000;
	3302	 1	 453.19	 85.79	 0.0	 0.0	 32	    1.00000	    0.00000	 230.0	 1	    1.10000	    0.90000;
	3303	 1	 820.76	 150.72	 0.0	 0.0	 32	    1.00000	    0.00000	 230.0	 1	    1.10000	    0.90000;
	3304	 1	 700.12	 122.62	 0.0	 0.0	 32	    1.00000	    0.00000	 230.0	 1	    1.10000	    0.90000;
	3305	 1	 564.73	 61.23	 0.0	 0.0	 32	    1.00000	    0.00000	 230.0	 1	    1.10000	    0.90000;
	3333	 2	 0.0	 0.0	 0.0	 0.0	 32	    1.00000	    0.00000	 20.0	 1	    1.10000	    0.90000;
	3401	 1	 731.91	 135.91	 0.0	 0.0	 34	    1.00000	    0.00000	 230.0	 1	    1.10000	    0.90000;
	3402	 1	 0.0	 0.0	 0.0	 0.0	 34	    1.00000	    0.00000	 230.0	 1	    1.10000	    0.90000;
	3403	 1	 677.13	 73.58	 0.0	 0.0	 34	    1.00000	    0.00000	 230.0	 1	    1.10000	    0.90000;
	3404	 1	 575.42	 62.08	 0.0	 0.0	 34	    1.00000	    0.00000	 230.0	 1	    1.10000	    0.90000;
	3405	 1	 589.11	 63.72	 0.0	 0.0	 34	    1.00000	    0.00000	 230.0	 1	    1.10000	    0.90000;
	3432	 2	 0.0	 0.0	 0.0	 0.0	 34	    1.00000	    0.00000	 20.0	 1	    1.10000	    0.90000;
	3433	 2	 0.0	 0.0	 0.0	 0.0	 34	    1.00000	    0.00000	 20.0	 1	    1.10000	    0.90000;
	3501	 1	 820.24	 89.02	 0.0	 0.0	 35	    1.00000	    0.00000	 230.0	 1	    1.10000	    0.90000;
	3531	 2	 0.0	 0.0	 0.0	 0.0	 35	    1.00000	    0.00000	 20.0	 1	    1.10000	    0.90000;
	3601	 1	 137.61	 14.84	 0.0	 0.0	 36	    1.00000	    0.00000	 115.0	 1	    1.10000	    0.90000;
	3631	 2	 0.0	 0.0	 0.0	 0.0	 36	    1.00000	    0.00000	 20.0	 1	    1.10000	    0.90000;
	3701	 1	 416.08	 15.85	 0.0	 0.0	 37	    1.00000	    0.00000	 115.0	 1	    1.10000	    0.90000;
	3731	 2	 0.0	 0.0	 0.0	 0.0	 37	    1.00000	    0.00000	 20.0	 1	    1.10000	    0.90000;
	3801	 1	 250.95	 47.41	 0.0	 0.0	 38	    1.00000	    0.00000	 500.0	 1	    1.10000	    0.90000;
	3802	 1	 0.0	 0.0	 0.0	 0.0	 38	    1.00000	    0.00000	 500.0	 1	    1.10000	    0.90000;
	3803	 1	 0.0	 0.0	 0.0	 0.0	 38	    1.00000	    0.00000	 500.0	 1	    1.10000	    0.90000;
	3804	 1	 293.50	 55.32	 0.0	 0.0	 38	    1.00000	    0.00000	 230.0	 1	    1.10000	    0.90000;
	3805	 1	 655.38	 163.11	 0.0	 0.0	 38	    1.00000	    0.00000	 230.0	 1	    1.10000	    0.90000;
	3806	 1	 380.04	 41.37	 0.0	 0.0	 38	    1.00000	    0.00000	 230.0	 1	    1.10000	    0.90000;
	3831	 2	 0.0	 0.0	 0.0	 0.0	 38	    1.00000	    0.00000	 20.0	 1	    1.10000	    0.90000;
	3835	 2	 0.0	 0.0	 0.0	 0.0	 38	    1.00000	    0.00000	 20.0	 1	    1.10000	    0.90000;
	3836	 2	 0.0	 0.0	 0.0	 0.0	 38	    1.00000	    0.00000	 20.0	 1	    1.10000	    0.90000;
	3891	 1	 0.0	 0.0	 0.0	 0.0	 38	    1.00000	    0.00000	 500.0	 1	    1.10000	    0.90000;
	3892	 1	 0.0	 0.0	 0.0	 0.0	 38	    1.00000	    0.00000	 500.0	 1	    1.10000	    0.90000;
	3893	 1	 0.0	 0.0	 0.0	 0.0	 38	    1.00000	    0.00000	 500.0	 1	    1.10000	    0.90000;
	3894	 1	 0.0	 0.0	 0.0	 0.0	 38	    1.00000	    0.00000	 500.0	 1	    1.10000	    0.90000;
	3895	 1	 0.0	 0.0	 0.0	 0.0	 38	    1.00000	    0.00000	 500.0	 1	    1.10000	    0.90000;
	3896	 1	 0.0	 0.0	 0.0	 0.0	 38	    1.00000	    0.00000	 500.0	 1	    1.10000	    0.90000;
	3897	 1	 0.0	 0.0	 0.0	 0.0	 38	    1.00000	    0.00000	 500.0	 1	    1.10000	    0.90000;
	3901	 1	 0.0	 0.0	 0.0	 0.0	 39	    1.00000	    0.00000	 500.0	 1	    1.10000	    0.90000;
	3902	 1	 200.78	 38.25	 0.0	 0.0	 39	    1.00000	    0.00000	 500.0	 1	    1.10000	    0.90000;
	3903	 1	 279.86	 30.27	 0.0	 0.0	 39	    1.00000	    0.00000	 500.0	 1	    1.10000	    0.90000;
	3904	 1	 0.0	 0.0	 0.0	 0.0	 39	    1.00000	    0.00000	 500.0	 1	    1.10000	    0.90000;
	3905	 1	 0.0	 0.0	 0.0	 0.0	 39	    1.00000	    0.00000	 500.0	 1	    1.10000	    0.90000;
	3906	 1	 0.0	 0.0	 0.0	 0.0	 39	    1.00000	    0.00000	 500.0	 1	    1.10000	    0.90000;
	3907	 1	 605.46	 63.07	 0.0	 0.0	 39	    1.00000	    0.00000	 230.0	 1	    1.10000	    0.90000;
	3908	 1	 262.84	 24.72	 0.0	 0.0	 39	    1.00000	    0.00000	 230.0	 1	    1.10000	    0.90000;
	3909	 1	 224.36	 39.78	 0.0	 0.0	 39	    1.00000	    0.00000	 230.0	 1	    1.10000	    0.90000;
	3910	 1	 317.38	 34.44	 0.0	 0.0	 39	    1.00000	    0.00000	 230.0	 1	    1.10000	    0.90000;
	3911	 1	 305.96	 47.11	 0.0	 0.0	 39	    1.00000	    0.00000	 230.0	 1	    1.10000	    0.90000;
	3912	 1	 174.50	 -0.63	 0.0	 0.0	 39	    1.00000	    0.00000	 230.0	 1	    1.10000	    0.90000;
	3913	 1	 432.48	 43.44	 0.0	 0.0	 39	    1.00000	    0.00000	 230.0	 1	    1.10000	    0.90000;
	3914	 1	 298.89	 52.55	 0.0	 0.0	 39	    1.00000	    0.00000	 230.0	 1	    1.10000	    0.90000;
	3915	 1	 333.94	 53.40	 0.0	 0.0	 39	    1.00000	    0.00000	 230.0	 1	    1.10000	    0.90000;
	3916	 1	 155.00	 0.00	 0.0	 0.0	 39	    1.00000	    0.00000	 230.0	 1	    1.10000	    0.90000;
	3917	 1	 312.59	 43.99	 0.0	 0.0	 39	    1.00000	    0.00000	 230.0	 1	    1.10000	    0.90000;
	3918	 1	 419.01	 75.46	 0.0	 0.0	 39	    1.00000	    0.00000	 230.0	 1	    1.10000	    0.90000;
	3919	 1	 242.14	 24.09	 0.0	 0.0	 39	    1.00000	    0.00000	 230.0	 1	    1.10000	    0.90000;
	3920	 1	 226.38	 23.68	 0.0	 0.0	 39	    1.00000	    0.00000	 230.0	 1	    1.10000	    0.90000;
	3921	 1	 198.02	 34.82	 0.0	 0.0	 39	    1.00000	    0.00000	 230.0	 1	    1.10000	    0.90000;
	3922	 1	 332.61	 31.92	 0.0	 0.0	 39	    1.00000	    0.00000	 230.0	 1	    1.10000	    0.90000;
	3923	 1	 523.71	 67.02	 0.0	 0.0	 39	    1.00000	    0.00000	 230.0	 1	    1.10000	    0.90000;
	3924	 1	 436.34	 47.16	 0.0	 0.0	 39	    1.00000	    0.00000	 230.0	 1	    1.10000	    0.90000;
	3925	 1	 0.0	 0.0	 0.0	 0.0	 39	    1.00000	    0.00000	 115.0	 1	    1.10000	    0.90000;
	3926	 1	 350.86	 16.67	 0.0	 0.0	 39	    1.00000	    0.00000	 115.0	 1	    1.10000	    0.90000;
	3931	 2	 0.0	 0.0	 0.0	 0.0	 39	    1.00000	    0.00000	 20.0	 1	    1.10000	    0.90000;
	3932	 2	 0.0	 0.0	 0.0	 0.0	 39	    1.00000	    0.00000	 20.0	 1	    1.10000	    0.90000;
	3933	 3	 0.0	 0.0	 0.0	 0.0	 39	    1.00000	    0.00000	 20.0	 1	    1.10000	    0.90000;
	4001	 1	 0.0	 0.0	 0.0	 0.0	 40	    1.00000	    0.00000	 500.0	 1	    1.10000	    0.90000;
	4002	 1	 221.37	 22.00	 0.0	 0.0	 40	    1.00000	    0.00000	 500.0	 1	    1.10000	    0.90000;
	4003	 1	 0.0	 0.0	 0.0	 0.0	 40	    1.00000	    0.00000	 500.0	 1	    1.10000	    0.90000;
	4004	 1	 354.93	 35.30	 0.0	 0.0	 40	    1.00000	    0.00000	 500.0	 1	    1.10000	    0.90000;
	4005	 1	 630.08	 157.42	 0.0	 0.0	 40	    1.00000	    0.00000	 500.0	 1	    1.10000	    0.90000;
	4006	 1	 0.0	 0.0	 0.0	 0.0	 40	    1.00000	    0.00000	 500.0	 1	    1.10000	    0.90000;
	4007	 1	 0.0	 0.0	 0.0	 0.0	 40	    1.00000	    0.00000	 500.0	 1	    1.10000	    0.90000;
	4008	 1	 374.21	 37.20	 0.0	 0.0	 40	    1.00000	    0.00000	 345.0	 1	    1.10000	    0.90000;
	4009	 1	 2898.65	 431.39	 0.0	 0.0	 40	    1.00000	    0.00000	 230.0	 1	    1.10000	    0.90000;
	4010	 1	 3133.61	 0.00	 0.0	 0.0	 90	    1.00000	    0.00000	 230.0	 1	    1.10000	    0.90000;
	4031	 2	 0.0	 0.0	 0.0	 0.0	 40	    1.00000	    0.00000	 20.0	 1	    1.10000	    0.90000;
	4035	 2	 0.0	 0.0	 0.0	 0.0	 40	    1.00000	    0.00000	 20.0	 1	    1.10000	    0.90000;
	4039	 2	 0.0	 0.0	 0.0	 0.0	 40	    1.00000	    0.00000	 20.0	 1	    1.10000	    0.90000;
	4090	 1	 0.0	 0.0	 0.0	 0.0	 40	    1.00000	    0.00000	 500.0	 1	    1.10000	    0.90000;
	4091	 1	 0.0	 0.0	 0.0	 0.0	 40	    1.00000	    0.00000	 500.0	 1	    1.10000	    0.90000;
	4092	 1	 0.0	 0.0	 0.0	 0.0	 40	    1.00000	    0.00000	 500.0	 1	    1.10000	    0.90000;
	4093	 1	 0.0	 0.0	 0.0	 0.0	 40	    1.00000	    0.00000	 500.0	 1	    1.10000	    0.90000;
	4094	 1	 0.0	 0.0	 0.0	 0.0	 40	    1.00000	    0.00000	 500.0	 1	    1.10000	    0.90000;
	4095	 1	 0.0	 0.0	 0.0	 0.0	 40	    1.00000	    0.00000	 500.0	 1	    1.10000	    0.90000;
	4096	 1	 0.0	 0.0	 0.0	 0.0	 40	    1.00000	    0.00000	 500.0	 1	    1.10000	    0.90000;
	4097	 1	 0.0	 0.0	 0.0	 0.0	 40	    1.00000	    0.00000	 500.0	 1	    1.10000	    0.90000;
	4101	 1	 1305.83	 129.78	 0.0	 0.0	 40	    1.00000	    0.00000	 500.0	 1	    1.10000	    0.90000;
	4102	 1	 630.78	 68.66	 0.0	 0.0	 40	    1.00000	    0.00000	 500.0	 1	    1.10000	    0.90000;
	4103	 1	 15.26	 1.51	 0.0	 0.0	 40	    1.00000	    0.00000	 500.0	 1	    1.10000	    0.90000;
	4104	 1	 3317.33	 329.74	 0.0	 0.0	 40	    1.00000	    0.00000	 230.0	 1	    1.10000	    0.90000;
	4131	 2	 0.0	 0.0	 0.0	 0.0	 40	    1.00000	    0.00000	 20.0	 1	    1.10000	    0.90000;
	4132	 2	 0.0	 0.0	 0.0	 0.0	 40	    1.00000	    0.00000	 20.0	 1	    1.10000	    0.90000;
	4201	 1	 7562.65	 461.01	 0.0	 0.0	 40	    1.00000	    0.00000	 500.0	 1	    1.10000	    0.90000;
	4202	 1	 5982.03	 594.63	 0.0	 0.0	 40	    1.00000	    0.00000	 500.0	 1	    1.10000	    0.90000;
	4203	 1	 5747.62	 571.33	 0.0	 0.0	 40	    1.00000	    0.00000	 500.0	 1	    1.10000	    0.90000;
	4204	 1	 1331.41	 132.34	 0.0	 0.0	 40	    1.00000	    0.00000	 500.0	 1	    1.10000	    0.90000;
	4231	 2	 0.0	 0.0	 0.0	 0.0	 40	    1.00000	    0.00000	 20.0	 1	    1.10000	    0.90000;
	4232	 2	 0.0	 0.0	 0.0	 0.0	 40	    1.00000	    0.00000	 20.0	 1	    1.10000	    0.90000;
	5001	 1	 9939.84	 1721.38	 0.0	 0.0	 50	    1.00000	    0.00000	 500.0	 1	    1.10000	    0.90000;
	5002	 1	 11816.42	 1174.36	 0.0	 0.0	 50	    1.00000	    0.00000	 500.0	 1	    1.10000	    0.90000;
	5003	 1	 807.38	 80.25	 0.0	 0.0	 50	    1.00000	    0.00000	 230.0	 1	    1.10000	    0.90000;
	5004	 1	 0.0	 0.0	 0.0	 0.0	 50	    1.00000	    0.00000	 230.0	 1	    1.10000	    0.90000;
	5031	 2	 0.0	 0.0	 0.0	 0.0	 50	    1.00000	    0.00000	 20.0	 1	    1.10000	    0.90000;
	5032	 2	 0.0	 0.0	 0.0	 0.0	 50	    1.00000	    0.00000	 20.0	 1	    1.10000	    0.90000;
	6101	 1	 0.0	 0.0	 0.0	 0.0	 61	    1.00000	    0.00000	 500.0	 1	    1.10000	    0.90000;
	6102	 1	 1053.14	 -345.28	 0.0	 0.0	 61	    1.00000	    0.00000	 345.0	 1	    1.10000	    0.90000;
	6103	 1	 514.30	 51.11	 0.0	 0.0	 61	    1.00000	    0.00000	 345.0	 1	    1.10000	    0.90000;
	6104	 1	 2224.39	 221.09	 0.0	 0.0	 61	    1.00000	    0.00000	 230.0	 1	    1.10000	    0.90000;
	6132	 2	 0.0	 0.0	 0.0	 0.0	 61	    1.00000	    0.00000	 20.0	 1	    1.10000	    0.90000;
	6201	 1	 270.11	 26.86	 0.0	 0.0	 60	    1.00000	    0.00000	 500.0	 1	    1.10000	    0.90000;
...
];

%% generator data
%	bus	Pg	Qg	Qmax	Qmin	Vg	mBase	status	Pmax	Pmin	Pc1	Pc2	Qc1min	Qc1max	Qc2min	Qc2max	ramp_agc	ramp_10	ramp_30	ramp_q	apf
mpc.gen = [
	1032	 743.5	 0.0	 1030.0	 -1030.0	 1.014	 100.0	 1	 1487	 0.0	 0.0	 0.0	 0.0	 0.0	 0.0	 0.0	 0.0	 0.0	 0.0	 0.0	 0.0; % NUC
	1032	 517.5	 0.0	 518.0	 -518.0	 1.014	 100.0	 1	 1035	 0.0	 0.0	 0.0	 0.0	 0.0	 0.0	 0.0	 0.0	 0.0	 0.0	 0.0	 0.0; % COW
	1034	 354.5	 0.0	 2294.0	 -2294.0	 1.014	 100.0	 1	 709	 0.0	 0.0	 0.0	 0.0	 0.0	 0.0	 0.0	 0.0	 0.0	 0.0	 0.0	 0.0; % COW
	1034	 271.0	 0.0	 918.0	 -918.0	 1.014	 100.0	 1	 542	 0.0	 0.0	 0.0	 0.0	 0.0	 0.0	 0.0	 0.0	 0.0	 0.0	 0.0	 0.0; % COW
	1034	 541.0	 0.0	 700.0	 -700.0	 1.014	 100.0	 1	 1082	 0.0	 0.0	 0.0	 0.0	 0.0	 0.0	 0.0	 0.0	 0.0	 0.0	 0.0	 0.0; % NUC
	1131	 886.5	 0.0	 887.0	 -887.0	 1.01	 100.0	 1	 1773	 0.0	 0.0	 0.0	 0.0	 0.0	 0.0	 0.0	 0.0	 0.0	 0.0	 0.0	 0.0; % COW
	1131	 886.5	 0.0	 1916.0	 -1916.0	 1.01	 100.0	 1	 1773	 0.0	 0.0	 0.0	 0.0	 0.0	 0.0	 0.0	 0.0	 0.0	 0.0	 0.0	 0.0; % COW
	1131	 923.5	 0.0	 924.0	 -924.0	 1.01	 100.0	 1	 1847	 0.0	 0.0	 0.0	 0.0	 0.0	 0.0	 0.0	 0.0	 0.0	 0.0	 0.0	 0.0; % NG
	1232	 726.5	 0.0	 1208.0	 -1208.0	 1.08	 100.0	 1	 1453	 0.0	 0.0	 0.0	 0.0	 0.0	 0.0	 0.0	 0.0	 0.0	 0.0	 0.0	 0.0; % COW
	1232	 571.5	 0.0	 628.0	 -628.0	 1.08	 100.0	 1	 1143	 0.0	 0.0	 0.0	 0.0	 0.0	 0.0	 0.0	 0.0	 0.0	 0.0	 0.0	 0.0; % NUC
	1331	 1208.5	 0.0	 1209.0	 -1209.0	 1.045	 100.0	 1	 2417	 0.0	 0.0	 0.0	 0.0	 0.0	 0.0	 0.0	 0.0	 0.0	 0.0	 0.0	 0.0; % NUC
	1331	 1239.0	 0.0	 1239.0	 -1239.0	 1.045	 100.0	 1	 2478	 0.0	 0.0	 0.0	 0.0	 0.0	 0.0	 0.0	 0.0	 0.0	 0.0	 0.0	 0.0; % COW
	1333	 1474.5	 0.0	 1475.0	 -1475.0	 1.005	 100.0	 1	 2949	 0.0	 0.0	 0.0	 0.0	 0.0	 0.0	 0.0	 0.0	 0.0	 0.0	 0.0	 0.0; % COW
	1333	 1438.0	 0.0	 2746.0	 -2746.0	 1.005	 100.0	 1	 2876	 0.0	 0.0	 0.0	 0.0	 0.0	 0.0	 0.0	 0.0	 0.0	 0.0	 0.0	 0.0; % NUC
	1333	 1578.5	 0.0	 1579.0	 -1579.0	 1.005	 100.0	 1	 3157	 0.0	 0.0	 0.0	 0.0	 0.0	 0.0	 0.0	 0.0	 0.0	 0.0	 0.0	 0.0; % PEL
	1431	 2419.5	 0.0	 3559.0	 -3559.0	 1.035	 100.0	 1	 4839	 0.0	 0.0	 0.0	 0.0	 0.0	 0.0	 0.0	 0.0	 0.0	 0.0	 0.0	 0.0; % COW
	1431	 2419.5	 0.0	 2420.0	 -2420.0	 1.035	 100.0	 1	 4839	 0.0	 0.0	 0.0	 0.0	 0.0	 0.0	 0.0	 0.0	 0.0	 0.0	 0.0	 0.0; % COW
	1431	 2589.5	 0.0	 2590.0	 -2590.0	 1.035	 100.0	 1	 5179	 0.0	 0.0	 0.0	 0.0	 0.0	 0.0	 0.0	 0.0	 0.0	 0.0	 0.0	 0.0; % PEL
	2030	 1045.5	 0.0	 1070.0	 -1070.0	 1.0	 100.0	 1	 2091	 0.0	 0.0	 0.0	 0.0	 0.0	 0.0	 0.0	 0.0	 0.0	 0.0	 0.0	 0.0; % COW
	2030	 774.5	 0.0	 775.0	 -775.0	 1.0	 100.0	 1	 1549	 0.0	 0.0	 0.0	 0.0	 0.0	 0.0	 0.0	 0.0	 0.0	 0.0	 0.0	 0.0; % COW
	2130	 297.0	 0.0	 297.0	 -297.0	 1.035	 100.0	 1	 594	 0.0	 0.0	 0.0	 0.0	 0.0	 0.0	 0.0	 0.0	 0.0	 0.0	 0.0	 0.0; % NG
	2130	 388.0	 0.0	 388.0	 -388.0	 1.035	 100.0	 1	 776	 0.0	 0.0	 0.0	 0.0	 0.0	 0.0	 0.0	 0.0	 0.0	 0.0	 0.0	 0.0; % COW
	2130	 297.0	 0.0	 297.0	 -297.0	 1.035	 100.0	 1	 594	 0.0	 0.0	 0.0	 0.0	 0.0	 0.0	 0.0	 0.0	 0.0	 0.0	 0.0	 0.0; % NG
	2130	 275.5	 0.0	 276.0	 -276.0	 1.035	 100.0	 1	 551	 0.0	 0.0	 0.0	 0.0	 0.0	 0.0	 0.0	 0.0	 0.0	 0.0	 0.0	 0.0; % NG
	2233	 565.5	 0.0	 566.0	 -566.0	 1.005	 100.0	 1	 1131	 0.0	 0.0	 0.0	 0.0	 0.0	 0.0	 0.0	 0.0	 0.0	 0.0	 0.0	 0.0; % COW
	2233	 635.0	 0.0	 635.0	 -635.0	 1.005	 100.0	 1	 1270	 0.0	 0.0	 0.0	 0.0	 0.0	 0.0	 0.0	 0.0	 0.0	 0.0	 0.0	 0.0; % NG
	2233	 635.0	 0.0	 635.0	 -635.0	 1.005	 100.0	 1	 1270	 0.0	 0.0	 0.0	 0.0	 0.0	 0.0	 0.0	 0.0	 0.0	 0.0	 0.0	 0.0; % NG
	2332	 703.5	 0.0	 704.0	 -704.0	 1.035	 100.0	 1	 1407	 0.0	 0.0	 0.0	 0.0	 0.0	 0.0	 0.0	 0.0	 0.0	 0.0	 0.0	 0.0; % NUC
	2438	 467.0	 130.5	 728.0	 -467.0	 1.009	 100.0	 1	 934	 0.0	 0.0	 0.0	 0.0	 0.0	 0.0	 0.0	 0.0	 0.0	 0.0	 0.0	 0.0; % NG
	2438	 627.0	 367.0	 1902.0	 -1168.0	 1.009	 100.0	 1	 1254	 0.0	 0.0	 0.0	 0.0	 0.0	 0.0	 0.0	 0.0	 0.0	 0.0	 0.0	 0.0; % NUC
	2438	 444.5	 624.0	 2301.0	 -1053.0	 1.009	 100.0	 1	 889	 0.0	 0.0	 0.0	 0.0	 0.0	 0.0	 0.0	 0.0	 0.0	 0.0	 0.0	 0.0; % COW
	2438	 651.5	 3.5	 659.0	 -652.0	 1.009	 100.0	 1	 1303	 0.0	 0.0	 0.0	 0.0	 0.0	 0.0	 0.0	 0.0	 0.0	 0.0	 0.0	 0.0; % COW
	2438	 485.0	 0.0	 485.0	 -485.0	 1.009	 100.0	 1	 970	 0.0	 0.0	 0.0	 0.0	 0.0	 0.0	 0.0	 0.0	 0.0	 0.0	 0.0	 0.0; % COW
	2438	 536.5	 4.0	 561.0	 -553.0	 1.009	 100.0	 1	 1073	 0.0	 0.0	 0.0	 0.0	 0.0	 0.0	 0.0	 0.0	 0.0	 0.0	 0.0	 0.0; % COW
	2438	 477.5	 380.0	 1910.0	 -1150.0	 1.009	 100.0	 1	 955	 0.0	 0.0	 0.0	 0.0	 0.0	 0.0	 0.0	 0.0	 0.0	 0.0	 0.0	 0.0; % COW
	2438	 -503.0	 0.0	 88.8	 -88.8	 1.009	 100.0	 1	 0	 -1006.0	 0.0	 0.0	 0.0	 0.0	 0.0	 0.0	 0.0	 0.0	 0.0	 0.0	 0.0; % SYNC
	2533	 2423.5	 0.0	 2424.0	 -2424.0	 1.009	 100.0	 1	 4847	 0.0	 0.0	 0.0	 0.0	 0.0	 0.0	 0.0	 0.0	 0.0	 0.0	 0.0	 0.0; % COW
	2630	 560.0	 0.0	 1346.0	 -1346.0	 1.004	 100.0	 1	 1120	 0.0	 0.0	 0.0	 0.0	 0.0	 0.0	 0.0	 0.0	 0.0	 0.0	 0.0	 0.0; % COW
	2631	 895.5	 0.0	 896.0	 -896.0	 1.015	 100.0	 1	 1791	 0.0	 0.0	 0.0	 0.0	 0.0	 0.0	 0.0	 0.0	 0.0	 0.0	 0.0	 0.0; % NG
	2634	 1969.5	 0.0	 1970.0	 -1970.0	 1.06	 100.0	 1	 3939	 0.0	 0.0	 0.0	 0.0	 0.0	 0.0	 0.0	 0.0	 0.0	 0.0	 0.0	 0.0; % COW
	2637	 2350.0	 0.0	 2350.0	 -2350.0	 1.015	 100.0	 1	 4700	 0.0	 0.0	 0.0	 0.0	 0.0	 0.0	 0.0	 0.0	 0.0	 0.0	 0.0	 0.0; % NG
	2638	 -516.5	 0.0	 120.0	 -120.0	 1.015	 100.0	 1	 239	 -1272.0	 0.0	 0.0	 0.0	 0.0	 0.0	 0.0	 0.0	 0.0	 0.0	 0.0	 0.0; % COW
	3133	 541.5	 0.0	 542.0	 -542.0	 1.0	 100.0	 1	 1083	 0.0	 0.0	 0.0	 0.0	 0.0	 0.0	 0.0	 0.0	 0.0	 0.0	 0.0	 0.0; % NG
	3133	 556.5	 0.0	 557.0	 -557.0	 1.0	 100.0	 1	 1113	 0.0	 0.0	 0.0	 0.0	 0.0	 0.0	 0.0	 0.0	 0.0	 0.0	 0.0	 0.0; % PEL
	3135	 380.5	 0.0	 381.0	 -381.0	 1.0	 100.0	 1	 761	 0.0	 0.0	 0.0	 0.0	 0.0	 0.0	 0.0	 0.0	 0.0	 0.0	 0.0	 0.0; % COW
	3135	 175.5	 0.0	 176.0	 -176.0	 1.0	 100.0	 1	 351	 0.0	 0.0	 0.0	 0.0	 0.0	 0.0	 0.0	 0.0	 0.0	 0.0	 0.0	 0.0; % NG
	3234	 646.0	 0.0	 646.0	 -646.0	 1.01	 100.0	 1	 1292	 0.0	 0.0	 0.0	 0.0	 0.0	 0.0	 0.0	 0.0	 0.0	 0.0	 0.0	 0.0; % COW
	3234	 498.0	 5.0	 1244.0	 -1234.0	 1.01	 100.0	 1	 996	 0.0	 0.0	 0.0	 0.0	 0.0	 0.0	 0.0	 0.0	 0.0	 0.0	 0.0	 0.0; % NG
	3234	 510.0	 0.0	 510.0	 -510.0	 1.01	 100.0	 1	 1020	 0.0	 0.0	 0.0	 0.0	 0.0	 0.0	 0.0	 0.0	 0.0	 0.0	 0.0	 0.0; % COW
	3234	 458.5	 0.0	 459.0	 -459.0	 1.01	 100.0	 1	 917	 0.0	 0.0	 0.0	 0.0	 0.0	 0.0	 0.0	 0.0	 0.0	 0.0	 0.0	 0.0; % COW
	3333	 486.5	 0.0	 487.0	 -487.0	 1.0	 100.0	 1	 973	 0.0	 0.0	 0.0	 0.0	 0.0	 0.0	 0.0	 0.0	 0.0	 0.0	 0.0	 0.0; % COW
	3333	 463.5	 0.0	 464.0	 -464.0	 1.0	 100.0	 1	 927	 0.0	 0.0	 0.0	 0.0	 0.0	 0.0	 0.0	 0.0	 0.0	 0.0	 0.0	 0.0; % NG
	3432	 81.5	 0.0	 544.0	 -544.0	 1.0	 100.0	 1	 1087	 -924.0	 0.0	 0.0	 0.0	 0.0	 0.0	 0.0	 0.0	 0.0	 0.0	 0.0	 0.0; % NG
	3433	 514.0	 0.0	 514.0	 -514.0	 1.0	 100.0	 1	 1028	 0.0	 0.0	 0.0	 0.0	 0.0	 0.0	 0.0	 0.0	 0.0	 0.0	 0.0	 0.0; % COW
	3433	 569.0	 185.0	 939.0	 -569.0	 1.0	 100.0	 1	 1138	 0.0	 0.0	 0.0	 0.0	 0.0	 0.0	 0.0	 0.0	 0.0	 0.0	 0.0	 0.0; % COW
	3531	 425.0	 202.5	 1004.0	 -599.0	 1.0	 100.0	 1	 850	 0.0	 0.0	 0.0	 0.0	 0.0	 0.0	 0.0	 0.0	 0.0	 0.0	 0.0	 0.0; % COW
	3531	 299.0	 0.0	 299.0	 -299.0	 1.0	 100.0	 1	 598	 0.0	 0.0	 0.0	 0.0	 0.0	 0.0	 0.0	 0.0	 0.0	 0.0	 0.0	 0.0; % COW
	3531	 268.5	 0.0	 269.0	 -269.0	 1.0	 100.0	 1	 537	 0.0	 0.0	 0.0	 0.0	 0.0	 0.0	 0.0	 0.0	 0.0	 0.0	 0.0	 0.0; % NG
	3631	 168.0	 0.0	 168.0	 -168.0	 1.015	 100.0	 1	 336	 0.0	 0.0	 0.0	 0.0	 0.0	 0.0	 0.0	 0.0	 0.0	 0.0	 0.0	 0.0; % NG
	3631	 106.0	 0.0	 106.0	 -106.0	 1.015	 100.0	 1	 212	 0.0	 0.0	 0.0	 0.0	 0.0	 0.0	 0.0	 0.0	 0.0	 0.0	 0.0	 0.0; % NG
	3731	 2080.0	 0.0	 2080.0	 -2080.0	 1.004	 100.0	 1	 4160	 0.0	 0.0	 0.0	 0.0	 0.0	 0.0	 0.0	 0.0	 0.0	 0.0	 0.0	 0.0; % NG
	3831	 712.5	 97.5	 1175.0	 -980.0	 1.049	 100.0	 1	 1425	 0.0	 0.0	 0.0	 0.0	 0.0	 0.0	 0.0	 0.0	 0.0	 0.0	 0.0	 0.0; % COW
	3835	 970.0	 0.0	 970.0	 -970.0	 1.035	 100.0	 1	 1940	 0.0	 0.0	 0.0	 0.0	 0.0	 0.0	 0.0	 0.0	 0.0	 0.0	 0.0	 0.0; % COW
	3835	 -255.0	 0.0	 19.2	 -19.2	 1.035	 100.0	 1	 0	 -510.0	 0.0	 0.0	 0.0	 0.0	 0.0	 0.0	 0.0	 0.0	 0.0	 0.0	 0.0; % SYNC
	3836	 491.5	 0.0	 492.0	 -492.0	 1.019	 100.0	 1	 983	 0.0	 0.0	 0.0	 0.0	 0.0	 0.0	 0.0	 0.0	 0.0	 0.0	 0.0	 0.0; % COW
	3931	 148.5	 1.0	 151.0	 -149.0	 1.07	 100.0	 1	 297	 0.0	 0.0	 0.0	 0.0	 0.0	 0.0	 0.0	 0.0	 0.0	 0.0	 0.0	 0.0; % NG
	3931	 461.5	 169.0	 1284.0	 -946.0	 1.07	 100.0	 1	 923	 0.0	 0.0	 0.0	 0.0	 0.0	 0.0	 0.0	 0.0	 0.0	 0.0	 0.0	 0.0; % NUC
	3932	 1127.0	 11.5	 1150.0	 -1127.0	 1.0	 100.0	 1	 2254	 0.0	 0.0	 0.0	 0.0	 0.0	 0.0	 0.0	 0.0	 0.0	 0.0	 0.0	 0.0; % COW
	3933	 404.5	 -14.7	 405.0	 -434.4	 1.012	 100.0	 1	 809	 0.0	 0.0	 0.0	 0.0	 0.0	 0.0	 0.0	 0.0	 0.0	 0.0	 0.0	 0.0; % COW
	3933	 363.5	 0.0	 434.4	 -434.4	 1.012	 100.0	 1	 727	 0.0	 0.0	 0.0	 0.0	 0.0	 0.0	 0.0	 0.0	 0.0	 0.0	 0.0	 0.0; % NG
	3933	 919.0	 0.0	 919.0	 -919.0	 1.012	 100.0	 1	 1838	 0.0	 0.0	 0.0	 0.0	 0.0	 0.0	 0.0	 0.0	 0.0	 0.0	 0.0	 0.0; % COW
	3933	 547.5	 107.5	 1256.0	 -1041.0	 1.012	 100.0	 1	 1095	 0.0	 0.0	 0.0	 0.0	 0.0	 0.0	 0.0	 0.0	 0.0	 0.0	 0.0	 0.0; % COW
	3933	 323.5	 0.0	 434.4	 -434.4	 1.012	 100.0	 1	 647	 0.0	 0.0	 0.0	 0.0	 0.0	 0.0	 0.0	 0.0	 0.0	 0.0	 0.0	 0.0; % NG
	3933	 296.0	 0.0	 521.0	 -521.0	 1.012	 100.0	 1	 1041	 -449.0	 0.0	 0.0	 0.0	 0.0	 0.0	 0.0	 0.0	 0.0	 0.0	 0.0	 0.0; % NUC
	4039	 873.5	 0.0	 958.8	 -958.8	 1.121	 100.0	 1	 1747	 0.0	 0.0	 0.0	 0.0	 0.0	 0.0	 0.0	 0.0	 0.0	 0.0	 0.0	 0.0; % COW
	4039	 848.0	 0.0	 1459.0	 -1459.0	 1.121	 100.0	 1	 1696	 0.0	 0.0	 0.0	 0.0	 0.0	 0.0	 0.0	 0.0	 0.0	 0.0	 0.0	 0.0; % COW
	4039	 642.5	 0.0	 958.8	 -958.8	 1.121	 100.0	 1	 1285	 0.0	 0.0	 0.0	 0.0	 0.0	 0.0	 0.0	 0.0	 0.0	 0.0	 0.0	 0.0; % NG
	4031	 1300.0	 0.0	 1300.0	 -1300.0	 1.08	 100.0	 1	 2600	 0.0	 0.0	 0.0	 0.0	 0.0	 0.0	 0.0	 0.0	 0.0	 0.0	 0.0	 0.0; % COW
	4031	 1353.5	 0.0	 1354.0	 -1354.0	 1.08	 100.0	 1	 2707	 0.0	 0.0	 0.0	 0.0	 0.0	 0.0	 0.0	 0.0	 0.0	 0.0	 0.0	 0.0; % NG
	4031	 1300.0	 0.0	 1300.0	 -1300.0	 1.08	 100.0	 1	 2600	 0.0	 0.0	 0.0	 0.0	 0.0	 0.0	 0.0	 0.0	 0.0	 0.0	 0.0	 0.0; % COW
	4031	 1353.5	 0.0	 1354.0	 -1354.0	 1.08	 100.0	 1	 2707	 0.0	 0.0	 0.0	 0.0	 0.0	 0.0	 0.0	 0.0	 0.0	 0.0	 0.0	 0.0; % NG
	4035	 366.0	 0.0	 721.2	 -721.2	 1.121	 100.0	 1	 732	 0.0	 0.0	 0.0	 0.0	 0.0	 0.0	 0.0	 0.0	 0.0	 0.0	 0.0	 0.0; % COW
	4035	 295.5	 0.0	 721.2	 -721.2	 1.121	 100.0	 1	 591	 0.0	 0.0	 0.0	 0.0	 0.0	 0.0	 0.0	 0.0	 0.0	 0.0	 0.0	 0.0; % COW
	4035	 465.5	 0.0	 1836.0	 -1836.0	 1.121	 100.0	 1	 931	 0.0	 0.0	 0.0	 0.0	 0.0	 0.0	 0.0	 0.0	 0.0	 0.0	 0.0	 0.0; % COW
	4035	 373.5	 0.0	 721.2	 -721.2	 1.121	 100.0	 1	 747	 0.0	 0.0	 0.0	 0.0	 0.0	 0.0	 0.0	 0.0	 0.0	 0.0	 0.0	 0.0; % COW
	4131	 655.0	 0.0	 6482.0	 -6482.0	 1.128	 100.0	 1	 1310	 0.0	 0.0	 0.0	 0.0	 0.0	 0.0	 0.0	 0.0	 0.0	 0.0	 0.0	 0.0; % COW
	4131	 682.5	 0.0	 683.0	 -683.0	 1.128	 100.0	 1	 1365	 0.0	 0.0	 0.0	 0.0	 0.0	 0.0	 0.0	 0.0	 0.0	 0.0	 0.0	 0.0; % NG
	4132	 174.0	 0.0	 1473.0	 -1473.0	 1.096	 100.0	 1	 348	 0.0	 0.0	 0.0	 0.0	 0.0	 0.0	 0.0	 0.0	 0.0	 0.0	 0.0	 0.0; % COW
	4132	 66.5	 0.0	 2847.0	 -2847.0	 1.096	 100.0	 1	 133	 0.0	 0.0	 0.0	 0.0	 0.0	 0.0	 0.0	 0.0	 0.0	 0.0	 0.0	 0.0; % COW
	4132	 303.5	 0.0	 580.0	 -580.0	 1.096	 100.0	 1	 607	 0.0	 0.0	 0.0	 0.0	 0.0	 0.0	 0.0	 0.0	 0.0	 0.0	 0.0	 0.0; % COW
	4132	 125.0	 0.0	 231.0	 -231.0	 1.096	 100.0	 1	 250	 0.0	 0.0	 0.0	 0.0	 0.0	 0.0	 0.0	 0.0	 0.0	 0.0	 0.0	 0.0; % NG
	4132	 173.0	 0.0	 173.0	 -173.0	 1.096	 100.0	 1	 346	 0.0	 0.0	 0.0	 0.0	 0.0	 0.0	 0.0	 0.0	 0.0	 0.0	 0.0	 0.0; % NG
	4231	 330.5	 0.0	 728.0	 -728.0	 1.12	 100.0	 1	 661	 0.0	 0.0	 0.0	 0.0	 0.0	 0.0	 0.0	 0.0	 0.0	 0.0	 0.0	 0.0; % COW
	4231	 318.0	 0.0	 659.0	 -659.0	 1.12	 100.0	 1	 636	 0.0	 0.0	 0.0	 0.0	 0.0	 0.0	 0.0	 0.0	 0.0	 0.0	 0.0	 0.0; % COW
	4231	 536.5	 0.0	 1808.0	 -1808.0	 1.12	 100.0	 1	 1073	 0.0	 0.0	 0.0	 0.0	 0.0	 0.0	 0.0	 0.0	 0.0	 0.0	 0.0	 0.0; % NUC
	4231	 358.5	 0.0	 359.0	 -359.0	 1.12	 100.0	 1	 717	 0.0	 0.0	 0.0	 0.0	 0.0	 0.0	 0.0	 0.0	 0.0	 0.0	 0.0	 0.0; % NG
	4232	 3030.0	 0.0	 3030.0	 -3030.0	 1.08	 100.0	 1	 6060	 0.0	 0.0	 0.0	 0.0	 0.0	 0.0	 0.0	 0.0	 0.0	 0.0	 0.0	 0.0; % COW
	4232	 3155.5	 0.0	 3156.0	 -3156.0	 1.08	 100.0	 1	 6311	 0.0	 0.0	 0.0	 0.0	 0.0	 0.0	 0.0	 0.0	 0.0	 0.0	 0.0	 0.0; % NG
	4232	 3155.5	 0.0	 3156.0	 -3156.0	 1.08	 100.0	 1	 6311	 0.0	 0.0	 0.0	 0.0	 0.0	 0.0	 0.0	 0.0	 0.0	 0.0	 0.0	 0.0; % NG
	5031	 2897.0	 0.0	 2897.0	 -2897.0	 1.05	 100.0	 1	 5794	 0.0	 0.0	 0.0	 0.0	 0.0	 0.0	 0.0	 0.0	 0.0	 0.0	 0.0	 0.0; % NG
	5031	 2781.5	 0.0	 4399.0	 -4399.0	 1.05	 100.0	 1	 5563	 0.0	 0.0	 0.0	 0.0	 0.0	 0.0	 0.0	 0.0	 0.0	 0.0	 0.0	 0.0; % COW
	5032	 1488.0	 0.0	 2977.0	 -2977.0	 1.055	 100.0	 1	 2976	 0.0	 0.0	 0.0	 0.0	 0.0	 0.0	 0.0	 0.0	 0.0	 0.0	 0.0	 0.0; % COW
	5032	 1488.0	 0.0	 2200.0	 -2200.0	 1.055	 100.0	 1	 2976	 0.0	 0.0	 0.0	 0.0	 0.0	 0.0	 0.0	 0.0	 0.0	 0.0	 0.0	 0.0; % COW
	5032	 1488.0	 0.0	 2205.0	 -2205.0	 1.055	 100.0	 1	 2976	 0.0	 0.0	 0.0	 0.0	 0.0	 0.0	 0.0	 0.0	 0.0	 0.0	 0.0	 0.0; % COW
	5032	 1549.5	 0.0	 1550.0	 -1550.0	 1.055	 100.0	 1	 3099	 0.0	 0.0	 0.0	 0.0	 0.0	 0.0	 0.0	 0.0	 0.0	 0.0	 0.0	 0.0; % NG
	5032	 1549.5	 0.0	 1550.0	 -1550.0	 1.055	 100.0	 1	 3099	 0.0	 0.0	 0.0	 0.0	 0.0	 0.0	 0.0	 0.0	 0.0	 0.0	 0.0	 0.0; % NG
	6132	 270.5	 0.0	 271.0	 -271.0	 1.13	 100.0	 1	 541	 0.0	 0.0	 0.0	 0.0	 0.0	 0.0	 0.0	 0.0	 0.0	 0.0	 0.0	 0.0; % COW
	6132	 233.0	 0.0	 233.0	 -233.0	 1.13	 100.0	 1	 466	 0.0	 0.0	 0.0	 0.0	 0.0	 0.0	 0.0	 0.0	 0.0	 0.0	 0.0	 0.0; % NG
	6132	 255.0	 0.0	 1072.0	 -1072.0	 1.13	 100.0	 1	 510	 0.0	 0.0	 0.0	 0.0	 0.0	 0.0	 0.0	 0.0	 0.0	 0.0	 0.0	 0.0; % COW
	6132	 228.0	 0.0	 228.0	 -228.0	 1.13	 100.0	 1	 456	 0.0	 0.0	 0.0	 0.0	 0.0	 0.0	 0.0	 0.0	 0.0	 0.0	 0.0	 0.0; % NG
	6132	 253.5	 0.0	 254.0	 -254.0	 1.13	 100.0	 1	 507	 0.0	 0.0	 0.0	 0.0	 0.0	 0.0	 0.0	 0.0	 0.0	 0.0	 0.0	 0.0; % NG
	6231	 425.5	 0.0	 1256.0	 -1256.0	 1.12	 100.0	 1	 851	 0.0	 0.0	 0.0	 0.0	 0.0	 0.0	 0.0	 0.0	 0.0	 0.0	 0.0	 0.0; % COW
	6231	 206.0	 0.0	 206.0	 -206.0	 1.12	 100.0	 1	 412	 0.0	 0.0	 0.0	 0.0	 0.0	 0.0	 0.0	 0.0	 0.0	 0.0	 0.0	 0.0; % COW
	6235	 448.0	 0.0	 448.0	 -448.0	 1.144	 100.0	 1	 896	 0.0	 0.0	 0.0	 0.0	 0.0	 0.0	 0.0	 0.0	 0.0	 0.0	 0.0	 0.0; % COW
	6235	 309.5	 0.0	 347.0	 -347.0	 1.144	 100.0	 1	 619	 0.0	 0.0	 0.0	 0.0	 0.0	 0.0	 0.0	 0.0	 0.0	 0.0	 0.0	 0.0; % COW
	6235	 291.5	 0.0	 292.0	 -292.0	 1.144	 100.0	 1	 583	 0.0	 0.0	 0.0	 0.0	 0.0	 0.0	 0.0	 0.0	 0.0	 0.0	 0.0	 0.0; % COW
	6333	 569.5	 0.0	 1671.0	 -1671.0	 1.13	 100.0	 1	 1139	 0.0	 0.0	 0.0	 0.0	 0.0	 0.0	 0.0	 0.0	 0.0	 0.0	 0.0	 0.0; % COW
	6333	 755.0	 0.0	 755.0	 -755.0	 1.13	 100.0	 1	 1510	 0.0	 0.0	 0.0	 0.0	 0.0	 0.0	 0.0	 0.0	 0.0	 0.0	 0.0	 0.0; % COW
	6335	 76.0	 0.0	 968.0	 -968.0	 1.06	 100.0	 1	 152	 0.0	 0.0	 0.0	 0.0	 0.0	 0.0	 0.0	 0.0	 0.0	 0.0	 0.0	 0.0; % NG
	6335	 181.0	 0.0	 330.0	 -330.0	 1.06	 100.0	 1	 362	 0.0	 0.0	 0.0	 0.0	 0.0	 0.0	 0.0	 0.0	 0.0	 0.0	 0.0	 0.0; % COW
	6335	 104.5	 0.0	 406.0	 -406.0	 1.06	 100.0	 1	 209	 0.0	 0.0	 0.0	 0.0	 0.0	 0.0	 0.0	 0.0	 0.0	 0.0	 0.0	 0.0; % COW
	6433	 249.0	 0.0	 283.0	 -283.0	 1.11	 100.0	 1	 498	 0.0	 0.0	 0.0	 0.0	 0.0	 0.0	 0.0	 0.0	 0.0	 0.0	 0.0	 0.0; % NG
	6433	 154.5	 0.0	 155.0	 -155.0	 1.11	 100.0	 1	 309	 0.0	 0.0	 0.0	 0.0	 0.0	 0.0	 0.0	 0.0	 0.0	 0.0	 0.0	 0.0; % NG
	6433	 250.0	 0.0	 536.0	 -536.0	 1.11	 100.0	 1	 500	 0.0	 0.0	 0.0	 0.0	 0.0	 0.0	 0.0	 0.0	 0.0	 0.0	 0.0	 0.0; % COW
	6433	 105.0	 0.0	 105.0	 -105.0	 1.11	 100.0	 1	 210	 0.0	 0.0	 0.0	 0.0	 0.0	 0.0	 0.0	 0.0	 0.0	 0.0	 0.0	 0.0; % PEL
	6433	 112.5	 0.0	 113.0	 -113.0	 1.11	 100.0	 1	 225	 0.0	 0.0	 0.0	 0.0	 0.0	 0.0	 0.0	 0.0	 0.0	 0.0	 0.0	 0.0; % NG
	6533	 492.5	 0.0	 1924.0	 -1924.0	 1.065	 100.0	 1	 985	 0.0	 0.0	 0.0	 0.0	 0.0	 0.0	 0.0	 0.0	 0.0	 0.0	 0.0	 0.0; % COW
	6533	 398.0	 0.0	 398.0	 -398.0	 1.065	 100.0	 1	 796	 0.0	 0.0	 0.0	 0.0	 0.0	 0.0	 0.0	 0.0	 0.0	 0.0	 0.0	 0.0; % PEL
	6533	 430.0	 0.0	 880.0	 -880.0	 1.065	 100.0	 1	 860	 0.0	 0.0	 0.0	 0.0	 0.0	 0.0	 0.0	 0.0	 0.0	 0.0	 0.0	 0.0; % COW
	6533	 387.0	 0.0	 387.0	 -387.0	 1.065	 100.0	 1	 774	 0.0	 0.0	 0.0	 0.0	 0.0	 0.0	 0.0	 0.0	 0.0	 0.0	 0.0	 0.0; % NG
	6533	 387.0	 0.0	 387.0	 -387.0	 1.065	 100.0	 1	 774	 0.0	 0.0	 0.0	 0.0	 0.0	 0.0	 0.0	 0.0	 0.0	 0.0	 0.0	 0.0; % NG
	7031	 1139.5	 0.0	 1419.0	 -1419.0	 1.0	 100.0	 1	 2279	 0.0	 0.0	 0.0	 0.0	 0.0	 0.0	 0.0	 0.0	 0.0	 0.0	 0.0	 0.0; % COW
	7031	 1139.5	 0.0	 2092.0	 -2092.0	 1.0	 100.0	 1	 2279	 0.0	 0.0	 0.0	 0.0	 0.0	 0.0	 0.0	 0.0	 0.0	 0.0	 0.0	 0.0; % COW
	7031	 832.0	 0.0	 999.0	 -999.0	 1.0	 100.0	 1	 1997	 -333.0	 0.0	 0.0	 0.0	 0.0	 0.0	 0.0	 0.0	 0.0	 0.0	 0.0	 0.0; % NG
	7031	 1186.5	 0.0	 1187.0	 -1187.0	 1.0	 100.0	 1	 2373	 0.0	 0.0	 0.0	 0.0	 0.0	 0.0	 0.0	 0.0	 0.0	 0.0	 0.0	 0.0; % NG
	7031	 1219.5	 0.0	 1220.0	 -1220.0	 1.0	 100.0	 1	 2439	 0.0	 0.0	 0.0	 0.0	 0.0	 0.0	 0.0	 0.0	 0.0	 0.0	 0.0	 0.0; % PEL
	7032	 680.5	 0.0	 826.0	 -826.0	 1.015	 100.0	 1	 1361	 0.0	 0.0	 0.0	 0.0	 0.0	 0.0	 0.0	 0.0	 0.0	 0.0	 0.0	 0.0; % COW
	7032	 461.0	 0.0	 489.0	 -489.0	 1.015	 100.0	 1	 922	 0.0	 0.0	 0.0	 0.0	 0.0	 0.0	 0.0	 0.0	 0.0	 0.0	 0.0	 0.0; % NUC
	7032	 452.0	 0.0	 452.0	 -452.0	 1.015	 100.0	 1	 904	 0.0	 0.0	 0.0	 0.0	 0.0	 0.0	 0.0	 0.0	 0.0	 0.0	 0.0	 0.0; % COW
	7032	 264.5	 0.0	 365.0	 -365.0	 1.015	 100.0	 1	 729	 -200.0	 0.0	 0.0	 0.0	 0.0	 0.0	 0.0	 0.0	 0.0	 0.0	 0.0	 0.0; % NG
	8033	 189.0	 0.0	 786.0	 -786.0	 1.075	 100.0	 1	 378	 0.0	 0.0	 0.0	 0.0	 0.0	 0.0	 0.0	 0.0	 0.0	 0.0	 0.0	 0.0; % COW
	8034	 1400.0	 0.0	 1400.0	 -1400.0	 1.0	 100.0	 1	 2800	 0.0	 0.0	 0.0	 0.0	 0.0	 0.0	 0.0	 0.0	 0.0	 0.0	 0.0	 0.0; % COW
	8034	 1400.0	 0.0	 1400.0	 -1400.0	 1.0	 100.0	 1	 2800	 0.0	 0.0	 0.0	 0.0	 0.0	 0.0	 0.0	 0.0	 0.0	 0.0	 0.0	 0.0; % COW
];

%% generator cost data
%	2	startup	shutdown	n	c(n-1)	...	c0
mpc.gencost = [
	2	 0.0	 0.0	 3	   0.000000	  24.393520	   0.000000; % NUC
	2	 0.0	 0.0	 3	   0.000000	  18.801900	   0.000000; % COW
	2	 0.0	 0.0	 3	   0.000000	  60.102763	   0.000000; % COW
	2	 0.0	 0.0	 3	   0.000000	   8.048101	   0.000000; % COW
	2	 0.0	 0.0	 3	   0.000000	   7.532251	   0.000000; % NUC
	2	 0.0	 0.0	 3	   0.000000	  32.636440	   0.000000; % COW
	2	 0.0	 0.0	 3	   0.000000	  31.448409	   0.000000; % COW
	2	 0.0	 0.0	 3	   0.000000	  35.907634	   0.000000; % NG
	2	 0.0	 0.0	 3	   0.000000	  21.053140	   0.000000; % COW
	2	 0.0	 0.0	 3	   0.000000	  31.527892	   0.000000; % NUC
	2	 0.0	 0.0	 3	   0.000000	  25.558137	   0.000000; % NUC
	2	 0.0	 0.0	 3	   0.000000	  28.876100	   0.000000; % COW
	2	 0.0	 0.0	 3	   0.000000	  34.787505	   0.000000; % COW
	2	 0.0	 0.0	 3	   0.000000	   7.976160	   0.000000; % NUC
	2	 0.0	 0.0	 3	   0.000000	 120.959591	   0.000000; % PEL
	2	 0.0	 0.0	 3	   0.000000	  39.730027	   0.000000; % COW
	2	 0.0	 0.0	 3	   0.000000	  26.321067	   0.000000; % COW
	2	 0.0	 0.0	 3	   0.000000	 116.911795	   0.000000; % PEL
	2	 0.0	 0.0	 3	   0.000000	   7.204570	   0.000000; % COW
	2	 0.0	 0.0	 3	   0.000000	  13.218963	   0.000000; % COW
	2	 0.0	 0.0	 3	   0.000000	  37.664966	   0.000000; % NG
	2	 0.0	 0.0	 3	   0.000000	  47.664547	   0.000000; % COW
	2	 0.0	 0.0	 3	   0.000000	  59.756930	   0.000000; % NG
	2	 0.0	 0.0	 3	   0.000000	  33.380307	   0.000000; % NG
	2	 0.0	 0.0	 3	   0.000000	  28.720268	   0.000000; % COW
	2	 0.0	 0.0	 3	   0.000000	  25.965664	   0.000000; % NG
	2	 0.0	 0.0	 3	   0.000000	  50.590540	   0.000000; % NG
	2	 0.0	 0.0	 3	   0.000000	  23.341498	   0.000000; % NUC
	2	 0.0	 0.0	 3	   0.000000	  26.103609	   0.000000; % NG
	2	 0.0	 0.0	 3	   0.000000	 135.753640	   0.000000; % NUC
	2	 0.0	 0.0	 3	   0.000000	  29.862463	   0.000000; % COW
	2	 0.0	 0.0	 3	   0.000000	  27.926242	   0.000000; % COW
	2	 0.0	 0.0	 3	   0.000000	  42.487383	   0.000000; % COW
	2	 0.0	 0.0	 3	   0.000000	  22.911230	   0.000000; % COW
	2	 0.0	 0.0	 3	   0.000000	  22.892828	   0.000000; % COW
	2	 0.0	 0.0	 3	   0.000000	   0.000000	   0.000000; % SYNC
	2	 0.0	 0.0	 3	   0.000000	  32.916334	   0.000000; % COW
	2	 0.0	 0.0	 3	   0.000000	  25.405151	   0.000000; % COW
	2	 0.0	 0.0	 3	   0.000000	  18.672714	   0.000000; % NG
	2	 0.0	 0.0	 3	   0.000000	  38.445748	   0.000000; % COW
	2	 0.0	 0.0	 3	   0.000000	  47.576744	   0.000000; % NG
	2	 0.0	 0.0	 3	   0.000000	  33.751574	   0.000000; % COW
	2	 0.0	 0.0	 3	   0.000000	  68.932478	   0.000000; % NG
	2	 0.0	 0.0	 3	   0.000000	 141.392226	   0.000000; % PEL
	2	 0.0	 0.0	 3	   0.000000	  33.278725	   0.000000; % COW
	2	 0.0	 0.0	 3	   0.000000	 187.895200	   0.000000; % NG
	2	 0.0	 0.0	 3	   0.000000	  51.637905	   0.000000; % COW
	2	 0.0	 0.0	 3	   0.000000	  33.521048	   0.000000; % NG
	2	 0.0	 0.0	 3	   0.000000	  11.000143	   0.000000; % COW
	2	 0.0	 0.0	 3	   0.000000	  35.786058	   0.000000; % COW
	2	 0.0	 0.0	 3	   0.000000	  36.459343	   0.000000; % COW
	2	 0.0	 0.0	 3	   0.000000	  41.942379	   0.000000; % NG
	2	 0.0	 0.0	 3	   0.000000	  23.998822	   0.000000; % NG
	2	 0.0	 0.0	 3	   0.000000	  20.196639	   0.000000; % COW
	2	 0.0	 0.0	 3	   0.000000	  27.247540	   0.000000; % COW
	2	 0.0	 0.0	 3	   0.000000	  23.945061	   0.000000; % COW
	2	 0.0	 0.0	 3	   0.000000	  33.285233	   0.000000; % COW
	2	 0.0	 0.0	 3	   0.000000	 132.896815	   0.000000; % NG
	2	 0.0	 0.0	 3	   0.000000	  48.769149	   0.000000; % NG
	2	 0.0	 0.0	 3	   0.000000	  41.683024	   0.000000; % NG
	2	 0.0	 0.0	 3	   0.000000	  54.153703	   0.000000; % NG
	2	 0.0	 0.0	 3	   0.000000	  19.250348	   0.000000; % COW
	2	 0.0	 0.0	 3	   0.000000	  27.765370	   0.000000; % COW
	2	 0.0	 0.0	 3	   0.000000	   0.000000	   0.000000; % SYNC
	2	 0.0	 0.0	 3	   0.000000	  39.519424	   0.000000; % COW
	2	 0.0	 0.0	 3	   0.000000	  61.894729	   0.000000; % NG
	2	 0.0	 0.0	 3	   0.000000	  32.993218	   0.000000; % NUC
	2	 0.0	 0.0	 3	   0.000000	  23.355886	   0.000000; % COW
	2	 0.0	 0.0	 3	   0.000000	  35.070316	   0.000000; % COW
	2	 0.0	 0.0	 3	   0.000000	  67.477890	   0.000000; % NG
	2	 0.0	 0.0	 3	   0.000000	  51.184835	   0.000000; % COW
	2	 0.0	 0.0	 3	   0.000000	  12.491355	   0.000000; % COW
	2	 0.0	 0.0	 3	   0.000000	  41.945944	   0.000000; % NG
	2	 0.0	 0.0	 3	   0.000000	   7.518943	   0.000000; % NUC
	2	 0.0	 0.0	 3	   0.000000	  15.642333	   0.000000; % COW
	2	 0.0	 0.0	 3	   0.000000	  32.685415	   0.000000; % COW
	2	 0.0	 0.0	 3	   0.000000	  44.861665	   0.000000; % NG
	2	 0.0	 0.0	 3	   0.000000	  29.335678	   0.000000; % COW
	2	 0.0	 0.0	 3	   0.000000	   8.057015	   0.000000; % NG
	2	 0.0	 0.0	 3	   0.000000	  28.660619	   0.000000; % COW
	2	 0.0	 0.0	 3	   0.000000	  45.397258	   0.000000; % NG
	2	 0.0	 0.0	 3	   0.000000	  28.355360	   0.000000; % COW
	2	 0.0	 0.0	 3	   0.000000	  23.287177	   0.000000; % COW
	2	 0.0	 0.0	 3	   0.000000	  24.023741	   0.000000; % COW
	2	 0.0	 0.0	 3	   0.000000	  44.119679	   0.000000; % COW
	2	 0.0	 0.0	 3	   0.000000	  32.045166	   0.000000; % COW
	2	 0.0	 0.0	 3	   0.000000	  58.451130	   0.000000; % NG
	2	 0.0	 0.0	 3	   0.000000	  21.142511	   0.000000; % COW
	2	 0.0	 0.0	 3	   0.000000	  15.142507	   0.000000; % COW
	2	 0.0	 0.0	 3	   0.000000	  31.845804	   0.000000; % COW
	2	 0.0	 0.0	 3	   0.000000	  55.655433	   0.000000; % NG
	2	 0.0	 0.0	 3	   0.000000	  50.874917	   0.000000; % NG
	2	 0.0	 0.0	 3	   0.000000	  16.022778	   0.000000; % COW
	2	 0.0	 0.0	 3	   0.000000	  29.224295	   0.000000; % COW
	2	 0.0	 0.0	 3	   0.000000	  42.277488	   0.000000; % NUC
	2	 0.0	 0.0	 3	   0.000000	  28.567219	   0.000000; % NG
	2	 0.0	 0.0	 3	   0.000000	  38.694479	   0.000000; % COW
	2	 0.0	 0.0	 3	   0.000000	  16.909977	   0.000000; % NG
	2	 0.0	 0.0	 3	   0.000000	  52.399186	   0.000000; % NG
	2	 0.0	 0.0	 3	   0.000000	  40.945020	   0.000000; % NG
	2	 0.0	 0.0	 3	   0.000000	  27.829253	   0.000000; % COW
	2	 0.0	 0.0	 3	   0.000000	  25.585751	   0.000000; % COW
	2	 0.0	 0.0	 3	   0.000000	  28.537708	   0.000000; % COW
	2	 0.0	 0.0	 3	   0.000000	  13.477471	   0.000000; % COW
	2	 0.0	 0.0	 3	   0.000000	  42.281081	   0.000000; % NG
	2	 0.0	 0.0	 3	   0.000000	  29.276914	   0.000000; % NG
	2	 0.0	 0.0	 3	   0.000000	  49.062928	   0.000000; % COW
	2	 0.0	 0.0	 3	   0.000000	  58.852160	   0.000000; % NG
	2	 0.0	 0.0	 3	   0.000000	  44.238556	   0.000000; % COW
	2	 0.0	 0.0	 3	   0.000000	 120.368428	   0.000000; % NG
	2	 0.0	 0.0	 3	   0.000000	  49.221943	   0.000000; % NG
	2	 0.0	 0.0	 3	   0.000000	  33.747916	   0.000000; % COW
	2	 0.0	 0.0	 3	   0.000000	  42.388441	   0.000000; % COW
	2	 0.0	 0.0	 3	   0.000000	  37.605963	   0.000000; % COW
	2	 0.0	 0.0	 3	   0.000000	  31.525369	   0.000000; % COW
	2	 0.0	 0.0	 3	   0.000000	  41.118225	   0.000000; % COW
	2	 0.0	 0.0	 3	   0.000000	  25.185235	   0.000000; % COW
	2	 0.0	 0.0	 3	   0.000000	  37.813264	   0.000000; % COW
	2	 0.0	 0.0	 3	   0.000000	  32.460983	   0.000000; % NG
	2	 0.0	 0.0	 3	   0.000000	  25.169555	   0.000000; % COW
	2	 0.0	 0.0	 3	   0.000000	  13.504585	   0.000000; % COW
	2	 0.0	 0.0	 3	   0.000000	  30.238936	   0.000000; % NG
	2	 0.0	 0.0	 3	   0.000000	  40.756741	   0.000000; % NG
	2	 0.0	 0.0	 3	   0.000000	 115.631122	   0.000000; % COW
	2	 0.0	 0.0	 3	   0.000000	  24.537326	   0.000000; % PEL
	2	 0.0	 0.0	 3	   0.000000	  39.598654	   0.000000; % NG
	2	 0.0	 0.0	 3	   0.000000	  20.416875	   0.000000; % COW
	2	 0.0	 0.0	 3	   0.000000	  40.437874	   0.000000; % PEL
	2	 0.0	 0.0	 3	   0.000000	  21.521265	   0.000000; % COW
	2	 0.0	 0.0	 3	   0.000000	  38.858118	   0.000000; % NG
	2	 0.0	 0.0	 3	   0.000000	  48.633718	   0.000000; % NG
	2	 0.0	 0.0	 3	   0.000000	  27.906177	   0.000000; % COW
	2	 0.0	 0.0	 3	   0.000000	   7.526452	   0.000000; % COW
	2	 0.0	 0.0	 3	   0.000000	  38.684873	   0.000000; % NG
	2	 0.0	 0.0	 3	   0.000000	  40.249356	   0.000000; % NG
	2	 0.0	 0.0	 3	   0.000000	  32.429154	   0.000000; % PEL
	2	 0.0	 0.0	 3	   0.000000	  54.015575	   0.000000; % COW
	2	 0.0	 0.0	 3	   0.000000	  32.143203	   0.000000; % NUC
	2	 0.0	 0.0	 3	   0.000000	  11.443281	   0.000000; % COW
	2	 0.0	 0.0	 3	   0.000000	  25.936103	   0.000000; % NG
	2	 0.0	 0.0	 3	   0.000000	 138.599598	   0.000000; % COW
	2	 0.0	 0.0	 3	   0.000000	  24.947060	   0.000000; % COW
	2	 0.0	 0.0	 3	   0.000000	  25.688951	   0.000000; % COW
];

%% branch data
%	fbus	tbus	r	x	b	rateA	rateB	rateC	ratio	angle	status	angmin	angmax
mpc.branch = [
	1001	 1201	 0.00177	 0.03169	 3.3446	 996.0	 996.0	 996.0	 0.0	 0.0	 1	 -30.0	 30.0;
	1001	 1202	 0.0108	 0.0965	 0.3296	 326.0	 326.0	 326.0	 0.0	 0.0	 1	 -30.0	 30.0;
	1002	 1004	 0.0005	 0.0053	 0.0882	 5934.0	 5934.0	 5934.0	 0.0	 0.0	 1	 -30.0	 30.0;
	1002	 1102	 0.00179	 0.01988	 2.576	 1583.0	 1583.0	 1583.0	 0.0	 0.0	 1	 -30.0	 30.0;
	1002	 1102	 0.00179	 0.01988	 2.576	 1583.0	 1583.0	 1583.0	 0.0	 0.0	 1	 -30.0	 30.0;
	1002	 6506	 0.0048	 0.0436	 0.7078	 721.0	 721.0	 721.0	 0.0	 0.0	 1	 -30.0	 30.0;
	1004	 7001	 0.03903	 0.27403	 2.0	 115.0	 115.0	 115.0	 0.0	 0.0	 1	 -30.0	 30.0;
	1004	 7002	 0.00977	 0.11	 2.0	 287.0	 287.0	 287.0	 0.0	 0.0	 1	 -30.0	 30.0;
	1101	 1401	 0.0028	 0.0211	 1.0194	 1485.0	 1485.0	 1485.0	 0.0	 0.0	 1	 -30.0	 30.0;
	1101	 1401	 0.0028	 0.0211	 1.0194	 1485.0	 1485.0	 1485.0	 0.0	 0.0	 1	 -30.0	 30.0;
	1201	 1202	 0.00077	 0.00536	 1.39842	 5834.0	 5834.0	 5834.0	 0.0	 0.0	 1	 -30.0	 30.0;
	1201	 1402	 0.00179	 0.02592	 3.3922	 1216.0	 1216.0	 1216.0	 0.0	 0.0	 1	 -30.0	 30.0;
	1201	 2901	 0.00207	 0.01369	 3.9516	 2282.0	 2282.0	 2282.0	 0.0	 0.0	 1	 -30.0	 30.0;
	1202	 1302	 0.0028	 0.0211	 1.0194	 1485.0	 1485.0	 1485.0	 0.0	 0.0	 1	 -30.0	 30.0;
	1202	 1402	 0.00241	 0.03489	 4.8656	 904.0	 904.0	 904.0	 0.0	 0.0	 1	 -30.0	 30.0;
	1301	 1302	 0.0028	 0.0211	 1.0194	 1485.0	 1485.0	 1485.0	 0.0	 0.0	 1	 -30.0	 30.0;
	1301	 1402	 0.0028	 0.0211	 1.0194	 1485.0	 1485.0	 1485.0	 0.0	 0.0	 1	 -30.0	 30.0;
	1301	 1402	 0.0062	 0.0673	 1.1156	 468.0	 468.0	 468.0	 0.0	 0.0	 1	 -30.0	 30.0;
	1301	 2603	 0.00179	 0.02524	 0.53546	 1249.0	 1249.0	 1249.0	 0.0	 0.0	 1	 -30.0	 30.0;
	1301	 2901	 0.0108	 0.0965	 0.3296	 326.0	 326.0	 326.0	 0.0	 0.0	 1	 -30.0	 30.0;
	1303	 6507	 0.00811	 0.1369	 1.1156	 231.0	 231.0	 231.0	 0.0	 0.0	 1	 -30.0	 30.0;
	1401	 1402	 0.0004	 0.0096	 0.9038	 3288.0	 3288.0	 3288.0	 0.0	 0.0	 1	 -30.0	 30.0;
	1401	 1402	 0.0004	 0.0096	 0.9038	 3288.0	 3288.0	 3288.0	 0.0	 0.0	 1	 -30.0	 30.0;
	1401	 2301	 0.00259	 0.02967	 2.153	 1061.0	 1061.0	 1061.0	 0.0	 0.0	 1	 -30.0	 30.0;
	1401	 2400	 0.00259	 0.02967	 2.153	 1061.0	 1061.0	 1061.0	 0.0	 0.0	 1	 -30.0	 30.0;
	1403	 2100	 0.00845	 0.07034	 0.15954	 446.0	 446.0	 446.0	 0.0	 0.0	 1	 -30.0	 30.0;
	2000	 2202	 0.00138	 0.05399	 0.15252	 585.0	 585.0	 585.0	 0.0	 0.0	 1	 -30.0	 30.0;
	2000	 2302	 0.00138	 0.05399	 0.15252	 585.0	 585.0	 585.0	 0.0	 0.0	 1	 -30.0	 30.0;
	2100	 2302	 0.00845	 0.07034	 0.15954	 446.0	 446.0	 446.0	 0.0	 0.0	 1	 -30.0	 30.0;
	2201	 2301	 0.00179	 0.02524	 2.153	 1249.0	 1249.0	 1249.0	 0.0	 0.0	 1	 -30.0	 30.0;
	2202	 2203	 0.00312	 0.02886	 0.15252	 1089.0	 986.0	 986.0	 0.0	 0.0	 1	 -30.0	 30.0;
	2202	 2203	 0.00312	 0.02886	 0.15252	 1089.0	 986.0	 986.0	 0.0	 0.0	 1	 -30.0	 30.0;
	2202	 2503	 0.00312	 0.02886	 0.15252	 1089.0	 986.0	 986.0	 0.0	 0.0	 1	 -30.0	 30.0;
	2203	 2503	 0.00312	 0.02886	 0.15252	 1089.0	 986.0	 986.0	 0.0	 0.0	 1	 -30.0	 30.0;
	2203	 2503	 0.00312	 0.02886	 0.15252	 1089.0	 986.0	 986.0	 0.0	 0.0	 1	 -30.0	 30.0;
	2400	 2403	 0.00042	 0.00905	 0.66794	 3487.0	 3487.0	 3487.0	 0.0	 0.0	 1	 -30.0	 30.0;
	2401	 2402	 0.00028	 0.00753	 0.51736	 4192.0	 4192.0	 3600.0	 0.0	 0.0	 1	 -30.0	 30.0;
	2401	 2402	 0.00035	 0.0075	 0.5536	 4208.0	 4208.0	 3600.0	 0.0	 0.0	 1	 -30.0	 30.0;
	2401	 2404	 0.00044	 0.01125	 0.8292	 2806.0	 2806.0	 2806.0	 0.0	 0.0	 1	 -30.0	 30.0;
	2401	 2404	 0.00044	 0.01125	 0.8292	 2806.0	 2806.0	 2806.0	 0.0	 0.0	 1	 -30.0	 30.0;
	2401	 2501	 0.0006	 0.0128	 0.9462	 2466.0	 2466.0	 2466.0	 0.0	 0.0	 1	 -30.0	 30.0;
	2401	 2603	 0.0002	 0.0041	 0.2962	 7696.0	 7696.0	 7696.0	 0.0	 0.0	 1	 -30.0	 30.0;
	2401	 2901	 0.00193	 0.02779	 4.6712	 1134.0	 1134.0	 1134.0	 0.0	 0.0	 1	 -30.0	 30.0;
	2401	 2902	 0.0019	 0.031	 4.1402	 1018.0	 1018.0	 1018.0	 0.0	 0.0	 1	 -30.0	 30.0;
	2402	 2501	 0.00021	 0.00457	 0.32336	 6905.0	 6905.0	 3600.0	 0.0	 0.0	 1	 -30.0	 30.0;
	2403	 2501	 0.0004	 0.0093	 0.6856	 3394.0	 3394.0	 3394.0	 0.0	 0.0	 1	 -30.0	 30.0;
	2404	 3893	 0.0	 -0.00935	 0.0	 3379.0	 3379.0	 2134.0	 0.0	 0.0	 1	 -30.0	 30.0;
	2404	 3895	 0.0	 -0.00935	 0.0	 3379.0	 3379.0	 2134.0	 0.0	 0.0	 1	 -30.0	 30.0;
	2404	 3897	 0.0	 -0.0084	 0.0	 3761.0	 3761.0	 2100.0	 0.0	 0.0	 1	 -30.0	 30.0;
	2405	 2406	 0.0014	 0.0264	 0.102	 1195.0	 1195.0	 1195.0	 0.0	 0.0	 1	 -30.0	 30.0;
	2405	 2410	 0.00065	 0.01187	 0.04672	 2658.0	 2658.0	 2658.0	 0.0	 0.0	 1	 -30.0	 30.0;
	2405	 2410	 0.00065	 0.01187	 0.04672	 2658.0	 2658.0	 2658.0	 0.0	 0.0	 1	 -30.0	 30.0;
	2406	 2408	 0.0019	 0.0258	 0.0984	 1222.0	 1222.0	 1222.0	 0.0	 0.0	 1	 -30.0	 30.0;
	2406	 2410	 0.00845	 0.07034	 0.15954	 446.0	 446.0	 446.0	 0.0	 0.0	 1	 -30.0	 30.0;
	2407	 2408	 0.0011	 0.0127	 0.048	 2478.0	 2478.0	 2320.0	 0.0	 0.0	 1	 -30.0	 30.0;
	2408	 2409	 0.00138	 0.05399	 0.15252	 585.0	 585.0	 585.0	 0.0	 0.0	 1	 -30.0	 30.0;
	2408	 2409	 0.00138	 0.05399	 0.15252	 585.0	 585.0	 585.0	 0.0	 0.0	 1	 -30.0	 30.0;
	2408	 2411	 0.0032	 0.0395	 0.144	 798.0	 798.0	 798.0	 0.0	 0.0	 1	 -30.0	 30.0;
	2408	 2502	 0.00312	 0.02886	 0.15252	 1089.0	 986.0	 986.0	 0.0	 0.0	 1	 -30.0	 30.0;
	2409	 2502	 0.00312	 0.02886	 0.15252	 1089.0	 986.0	 986.0	 0.0	 0.0	 1	 -30.0	 30.0;
	2409	 2503	 0.00312	 0.02886	 0.15252	 1089.0	 986.0	 986.0	 0.0	 0.0	 1	 -30.0	 30.0;
	2410	 2411	 0.00285	 0.03649	 0.12656	 864.0	 864.0	 864.0	 0.0	 0.0	 1	 -30.0	 30.0;
	2410	 2411	 0.00138	 0.03399	 0.11252	 929.0	 929.0	 929.0	 0.0	 0.0	 1	 -30.0	 30.0;
	2502	 2503	 0.00312	 0.02886	 0.15252	 1089.0	 986.0	 986.0	 0.0	 0.0	 1	 -30.0	 30.0;
	2502	 2503	 0.00312	 0.02886	 0.15252	 1089.0	 986.0	 986.0	 0.0	 0.0	 1	 -30.0	 30.0;
	2901	 2902	 0.00056	 0.01415	 1.0429	 2231.0	 2231.0	 2231.0	 0.0	 0.0	 1	 -30.0	 30.0;
	2600	 2602	 0.00082	 0.01668	 1.18802	 1892.0	 1892.0	 1892.0	 0.0	 0.0	 1	 -30.0	 30.0;
	2600	 2603	 0.0	 0.00159	 0.12002	 19867.0	 19867.0	 19867.0	 0.0	 0.0	 1	 -30.0	 30.0;
	2600	 2603	 0.0	 0.00159	 0.12002	 19867.0	 19867.0	 19867.0	 0.0	 0.0	 1	 -30.0	 30.0;
	2600	 2601	 0.00074	 0.01861	 1.40264	 1696.0	 1696.0	 1696.0	 0.0	 0.0	 1	 -30.0	 30.0;
	2601	 2603	 0.00083	 0.01884	 1.66668	 1675.0	 1675.0	 1675.0	 0.0	 0.0	 1	 -30.0	 30.0;
	2603	 2901	 0.00179	 0.02524	 0.53546	 1249.0	 1249.0	 1249.0	 0.0	 0.0	 1	 -30.0	 30.0;
	2604	 6404	 0.0108	 0.0965	 0.3296	 326.0	 326.0	 326.0	 0.0	 0.0	 1	 -30.0	 30.0;
	2604	 6504	 0.0018	 0.0245	 0.4392	 1286.0	 1286.0	 1286.0	 0.0	 0.0	 1	 -30.0	 30.0;
	2604	 6504	 0.0018	 0.0245	 0.4392	 1286.0	 1286.0	 1286.0	 0.0	 0.0	 1	 -30.0	 30.0;
	2605	 2607	 0.0107	 0.07905	 0.3667	 396.0	 396.0	 396.0	 0.0	 0.0	 1	 -30.0	 30.0;
	2606	 2607	 0.0107	 0.07905	 0.3667	 396.0	 396.0	 396.0	 0.0	 0.0	 1	 -30.0	 30.0;
	2608	 2611	 0.00221	 0.03346	 0.07338	 942.0	 942.0	 942.0	 0.0	 0.0	 1	 -30.0	 30.0;
	2608	 2612	 0.0029	 0.038	 0.0824	 829.0	 829.0	 829.0	 0.0	 0.0	 1	 -30.0	 30.0;
	2608	 2618	 0.00309	 0.04677	 0.1008	 674.0	 674.0	 674.0	 0.0	 0.0	 1	 -30.0	 30.0;
	2608	 2619	 0.00226	 0.03422	 0.07506	 922.0	 922.0	 922.0	 0.0	 0.0	 1	 -30.0	 30.0;
	2609	 2615	 0.00047	 0.00723	 0.01624	 4360.0	 4360.0	 4360.0	 0.0	 0.0	 1	 -30.0	 30.0;
	2609	 2617	 0.00035	 0.00536	 0.01204	 5881.0	 5881.0	 5881.0	 0.0	 0.0	 1	 -30.0	 30.0;
	2610	 2613	 0.0022	 0.03422	 0.07716	 922.0	 922.0	 922.0	 0.0	 0.0	 1	 -30.0	 30.0;
	2610	 2613	 0.00238	 0.03669	 0.08284	 860.0	 860.0	 860.0	 0.0	 0.0	 1	 -30.0	 30.0;
	2610	 2616	 0.00201	 0.03074	 0.06886	 1026.0	 1026.0	 1026.0	 0.0	 0.0	 1	 -30.0	 30.0;
	2610	 2617	 0.00281	 0.04296	 0.09648	 734.0	 734.0	 734.0	 0.0	 0.0	 1	 -30.0	 30.0;
	2611	 2612	 0.00029	 0.00434	 0.0095	 7262.0	 7262.0	 7262.0	 0.0	 0.0	 1	 -30.0	 30.0;
	2612	 2615	 0.00229	 0.01583	 0.0306	 1975.0	 1975.0	 1975.0	 0.0	 0.0	 1	 -30.0	 30.0;
	2612	 2615	 0.00229	 0.01583	 0.0306	 1975.0	 1975.0	 1975.0	 0.0	 0.0	 1	 -30.0	 30.0;
	2612	 2618	 0.00141	 0.00967	 0.0194	 3233.0	 3233.0	 3233.0	 0.0	 0.0	 1	 -30.0	 30.0;
	2612	 2618	 0.00141	 0.00967	 0.0194	 3233.0	 3233.0	 3233.0	 0.0	 0.0	 1	 -30.0	 30.0;
	2612	 2618	 0.00161	 0.00971	 0.01928	 3210.0	 3210.0	 3210.0	 0.0	 0.0	 1	 -30.0	 30.0;
	2612	 2618	 0.00161	 0.00971	 0.01928	 3210.0	 3210.0	 3210.0	 0.0	 0.0	 1	 -30.0	 30.0;
	2612	 2619	 0.00027	 0.00393	 0.00918	 8019.0	 8019.0	 8019.0	 0.0	 0.0	 1	 -30.0	 30.0;
	2612	 2619	 0.00027	 0.00393	 0.00918	 8019.0	 8019.0	 8019.0	 0.0	 0.0	 1	 -30.0	 30.0;
	2612	 2619	 0.00027	 0.00393	 0.00918	 8019.0	 8019.0	 8019.0	 0.0	 0.0	 1	 -30.0	 30.0;
	2612	 2620	 0.00138	 0.01116	 0.0247	 2810.0	 2810.0	 2810.0	 0.0	 0.0	 1	 -30.0	 30.0;
	2612	 2620	 0.00138	 0.01116	 0.0247	 2810.0	 2810.0	 2810.0	 0.0	 0.0	 1	 -30.0	 30.0;
	2613	 2616	 0.00037	 0.00366	 0.0083	 8587.0	 8587.0	 8587.0	 0.0	 0.0	 1	 -30.0	 30.0;
	2613	 2617	 0.00055	 0.00586	 0.01246	 5367.0	 5367.0	 5367.0	 0.0	 0.0	 1	 -30.0	 30.0;
	2614	 2616	 0.00073	 0.01025	 0.02558	 3074.0	 3074.0	 3074.0	 0.0	 0.0	 1	 -30.0	 30.0;
	2614	 2616	 0.00073	 0.01025	 0.02558	 3074.0	 3074.0	 3074.0	 0.0	 0.0	 1	 -30.0	 30.0;
	2615	 2617	 0.00119	 0.01244	 0.02798	 2528.0	 2528.0	 2528.0	 0.0	 0.0	 1	 -30.0	 30.0;
	2615	 2617	 0.00119	 0.01244	 0.02798	 2528.0	 2528.0	 2528.0	 0.0	 0.0	 1	 -30.0	 30.0;
	2615	 2620	 0.00128	 0.00979	 0.0212	 3200.0	 3200.0	 3200.0	 0.0	 0.0	 1	 -30.0	 30.0;
	2616	 2617	 0.0011	 0.01189	 0.02514	 2646.0	 2646.0	 2646.0	 0.0	 0.0	 1	 -30.0	 30.0;
	3101	 3102	 0.0011	 0.0127	 0.048	 2478.0	 1120.0	 1120.0	 0.0	 0.0	 1	 -30.0	 30.0;
	3101	 3102	 0.0011	 0.0127	 0.048	 2478.0	 1120.0	 1120.0	 0.0	 0.0	 1	 -30.0	 30.0;
	3102	 3103	 0.0011	 0.0127	 0.048	 2478.0	 1120.0	 1120.0	 0.0	 0.0	 1	 -30.0	 30.0;
	3102	 3103	 0.0011	 0.0127	 0.048	 2478.0	 1120.0	 1120.0	 0.0	 0.0	 1	 -30.0	 30.0;
	3102	 3103	 0.0011	 0.0127	 0.048	 2478.0	 1120.0	 1120.0	 0.0	 0.0	 1	 -30.0	 30.0;
	3102	 3302	 0.0011	 0.0127	 0.048	 2478.0	 1120.0	 1120.0	 0.0	 0.0	 1	 -30.0	 30.0;
	3103	 3204	 0.0011	 0.0127	 0.048	 2478.0	 1120.0	 1120.0	 0.0	 0.0	 1	 -30.0	 30.0;
	3103	 3204	 0.0011	 0.0127	 0.048	 2478.0	 1120.0	 1120.0	 0.0	 0.0	 1	 -30.0	 30.0;
	3103	 3305	 0.0011	 0.0127	 0.048	 2478.0	 1120.0	 1120.0	 0.0	 0.0	 1	 -30.0	 30.0;
	3103	 3305	 0.0011	 0.0127	 0.048	 2478.0	 1120.0	 1120.0	 0.0	 0.0	 1	 -30.0	 30.0;
	3104	 3105	 0.00312	 0.02886	 0.15252	 1089.0	 986.0	 986.0	 0.0	 0.0	 1	 -30.0	 30.0;
	3201	 3202	 0.0011	 0.0127	 0.048	 2478.0	 1120.0	 1120.0	 0.0	 0.0	 1	 -30.0	 30.0;
	3201	 3202	 0.0011	 0.0127	 0.048	 2478.0	 1120.0	 1120.0	 0.0	 0.0	 1	 -30.0	 30.0;
	3201	 3203	 0.0011	 0.0127	 0.048	 2478.0	 1120.0	 1120.0	 0.0	 0.0	 1	 -30.0	 30.0;
	3201	 3203	 0.0011	 0.0127	 0.048	 2478.0	 1120.0	 1120.0	 0.0	 0.0	 1	 -30.0	 30.0;
	3201	 3923	 0.00312	 0.02886	 0.15252	 1089.0	 986.0	 986.0	 0.0	 0.0	 1	 -30.0	 30.0;
	3201	 3923	 0.00312	 0.02886	 0.15252	 1089.0	 986.0	 986.0	 0.0	 0.0	 1	 -30.0	 30.0;
	3201	 3924	 0.0011	 0.0127	 0.048	 2478.0	 1120.0	 1120.0	 0.0	 0.0	 1	 -30.0	 30.0;
	3201	 3924	 0.0011	 0.0127	 0.048	 2478.0	 1120.0	 1120.0	 0.0	 0.0	 1	 -30.0	 30.0;
	3202	 3203	 0.0011	 0.0127	 0.048	 2478.0	 1120.0	 1120.0	 0.0	 0.0	 1	 -30.0	 30.0;
	3202	 3203	 0.00312	 0.02886	 0.15252	 1089.0	 986.0	 986.0	 0.0	 0.0	 1	 -30.0	 30.0;
	3202	 3204	 0.0011	 0.0127	 0.048	 2478.0	 1120.0	 1120.0	 0.0	 0.0	 1	 -30.0	 30.0;
	3202	 3205	 0.0011	 0.0127	 0.048	 2478.0	 1120.0	 1120.0	 0.0	 0.0	 1	 -30.0	 30.0;
	3202	 3924	 0.00312	 0.02886	 0.15252	 1089.0	 986.0	 986.0	 0.0	 0.0	 1	 -30.0	 30.0;
	3202	 3924	 0.00312	 0.02886	 0.15252	 1089.0	 986.0	 986.0	 0.0	 0.0	 1	 -30.0	 30.0;
	3203	 3204	 0.0011	 0.0127	 0.048	 2478.0	 1120.0	 1120.0	 0.0	 0.0	 1	 -30.0	 30.0;
	3203	 3303	 0.0011	 0.0127	 0.048	 2478.0	 1120.0	 1120.0	 0.0	 0.0	 1	 -30.0	 30.0;
	3203	 3303	 0.00312	 0.02886	 0.15252	 1089.0	 986.0	 986.0	 0.0	 0.0	 1	 -30.0	 30.0;
	3203	 3305	 0.0011	 0.0127	 0.048	 2478.0	 1120.0	 1120.0	 0.0	 0.0	 1	 -30.0	 30.0;
	3203	 3923	 0.00312	 0.02886	 0.15252	 1089.0	 986.0	 986.0	 0.0	 0.0	 1	 -30.0	 30.0;
	3203	 3923	 0.00312	 0.02886	 0.15252	 1089.0	 986.0	 986.0	 0.0	 0.0	 1	 -30.0	 30.0;
	3204	 3205	 0.0011	 0.0127	 0.048	 2478.0	 1120.0	 1120.0	 0.0	 0.0	 1	 -30.0	 30.0;
	3204	 3205	 0.0011	 0.0127	 0.048	 2478.0	 1120.0	 1120.0	 0.0	 0.0	 1	 -30.0	 30.0;
	3204	 3923	 0.00312	 0.02886	 0.15252	 1089.0	 986.0	 986.0	 0.0	 0.0	 1	 -30.0	 30.0;
	3204	 3923	 0.00312	 0.02886	 0.15252	 1089.0	 986.0	 986.0	 0.0	 0.0	 1	 -30.0	 30.0;
	3205	 3914	 0.00312	 0.02886	 0.15252	 1089.0	 986.0	 986.0	 0.0	 0.0	 1	 -30.0	 30.0;
	3205	 3915	 0.00312	 0.02886	 0.15252	 1089.0	 986.0	 986.0	 0.0	 0.0	 1	 -30.0	 30.0;
	3301	 3902	 0.00053	 0.01297	 0.0	 2434.0	 2434.0	 2434.0	 0.0	 0.0	 1	 -30.0	 30.0;
	3301	 3903	 1e-05	 -0.00755	 0.0	 4184.0	 4184.0	 4184.0	 0.0	 0.0	 1	 -30.0	 30.0;
	3302	 3304	 0.0011	 0.0127	 0.048	 2478.0	 1120.0	 1120.0	 0.0	 0.0	 1	 -30.0	 30.0;
	3302	 3304	 0.0011	 0.0127	 0.048	 2478.0	 1120.0	 1120.0	 0.0	 0.0	 1	 -30.0	 30.0;
	3303	 3304	 0.0011	 0.0127	 0.048	 2478.0	 1120.0	 1120.0	 0.0	 0.0	 1	 -30.0	 30.0;
	3303	 3304	 0.0011	 0.0127	 0.048	 2478.0	 1120.0	 1120.0	 0.0	 0.0	 1	 -30.0	 30.0;
	3303	 3304	 0.0011	 0.0127	 0.048	 2478.0	 1120.0	 1120.0	 0.0	 0.0	 1	 -30.0	 30.0;
	3303	 3918	 0.00312	 0.02886	 0.15252	 1089.0	 986.0	 986.0	 0.0	 0.0	 1	 -30.0	 30.0;
	3303	 3918	 0.00312	 0.02886	 0.15252	 1089.0	 986.0	 986.0	 0.0	 0.0	 1	 -30.0	 30.0;
	3305	 3923	 0.00312	 0.02886	 0.15252	 1089.0	 986.0	 986.0	 0.0	 0.0	 1	 -30.0	 30.0;
	3401	 3402	 0.00312	 0.02886	 0.15252	 1089.0	 986.0	 986.0	 0.0	 0.0	 1	 -30.0	 30.0;
	3401	 3402	 0.00312	 0.02886	 0.15252	 1089.0	 986.0	 986.0	 0.0	 0.0	 1	 -30.0	 30.0;
	3401	 3404	 0.00312	 0.02886	 0.15252	 1089.0	 986.0	 986.0	 0.0	 0.0	 1	 -30.0	 30.0;
	3401	 3405	 0.00312	 0.02886	 0.15252	 1089.0	 986.0	 986.0	 0.0	 0.0	 1	 -30.0	 30.0;
	3401	 3405	 0.00312	 0.02886	 0.15252	 1089.0	 986.0	 986.0	 0.0	 0.0	 1	 -30.0	 30.0;
...